  20
 
 N         -1.1714713451       -0.3355603824        0.0296512627
 C          0.0915436095       -0.6844616659        0.0676486720
 N          1.1875594599        0.0345131082        0.0814135895
 H          0.2591614782       -1.7561826893        0.0924021234
 C         -2.1865014593       -1.3576088562       -0.1293206063
 C          2.4644324785       -0.6204834991        0.2830954755
 H         -2.8002718099       -1.4189525177        0.7711109730
 H         -1.7434000663       -2.3315332772       -0.3198527867
 H         -2.8309081315       -1.0984500975       -0.9700984059
 H          2.9849249432       -0.1479423089        1.1167572188
 H          3.0817681823       -0.5203187551       -0.6111343229
 H          2.3386910902       -1.6763804878        0.5068267851
 C         -1.7155268890        1.0028723741        0.1511209034
 H         -1.0946932972        1.6258317364        0.7859557497
 H         -2.6988949547        0.9293258622        0.6127370821
 H         -1.8411632097        1.4688353423       -0.8272340854
 C          1.3004100970        1.4681647686       -0.1022786493
 H          2.2551388648        1.6747742113       -0.5841670696
 H          1.2908137580        1.9906750755        0.8557275836
 H          0.5133291776        1.8487485744       -0.7441639073
          20
        -22.86463714
 N         -1.1942962707       -0.0931922862        0.0178507110
 C          0.0000752083       -0.6331125691        0.0003149697
 N          1.1944290531       -0.0930764590       -0.0177601838
 H          0.0001166344       -1.7181311808        0.0005158221
 C         -2.3601100311       -0.9428957038       -0.1192537729
 C          2.3603457636       -0.9427534248        0.1189613843
 H         -2.9555871760       -0.9109785965        0.7946886692
 H         -2.0796690015       -1.9735575736       -0.3197366711
 H         -2.9749260025       -0.5827126021       -0.9448950957
 H          2.9760084945       -0.5819035219        0.9435933921
 H          2.9547778910       -0.9117881666       -0.7956481944
 H          2.0800398955       -1.9731179833        0.3207008766
 C         -1.5214394093        1.3106071745        0.1743196578
 H         -0.7875024305        1.8222441345        0.7877563635
 H         -2.4854796827        1.3811498581        0.6762943603
 H         -1.6133356143        1.8046944091       -0.7943587052
 C          1.5210519252        1.3108425347       -0.1743612427
 H          0.7885225614        1.8212743680       -0.7905662471
 H          2.4864829349        1.3816470477       -0.6734529344
 H          1.6096183859        1.8060222799        0.7940767796
