  16
 
 N         -0.9279900000        4.2539700000        2.7300700000
 C          0.1526700000        3.3088200000        2.7750600000
 N          1.2278900000        3.9159800000        2.0414000000
 C          0.7730400000        5.1799900000        1.5867800000
 C         -0.4838100000        5.3751900000        1.9891900000
 C         -2.2289300000        4.0890200000        3.3312000000
 C          2.5261100000        3.3238800000        1.8221500000
 H         -2.2944300000        3.1092900000        3.8500800000
 H         -3.0114300000        4.1326000000        2.5449700000
 H         -2.4042700000        4.8993700000        4.0694000000
 H          3.0160000000        3.1307500000        2.7993000000
 H          3.1753700000        3.9966700000        1.2251500000
 H          2.4093100000        2.3645800000        1.2760700000
 H          0.1573600000        2.3161700000        3.2724800000
 Cl         1.7255700000        6.3156100000        0.6361800000
 Cl        -1.4582300000        6.8031300000        1.6590500000
