  21
 
 N         -1.0405149797       -0.6714527177        0.0000002508
 C          0.0436074494       -1.4850187231       -0.0000061471
 N          1.0925610487       -0.6178809891        0.0000004441
 C          0.6738501887        0.7010690611       -0.0000005377
 C         -0.6874222153        0.6624973856       -0.0000005614
 C         -2.3924411245       -1.1511548653        0.0000011908
 C          2.4495193373       -1.0980766303        0.0000009057
 H         -2.3618711319       -2.2385535633       -0.0000016031
 H         -2.9276655149       -0.8052059799       -0.8875464922
 H         -2.9276644367       -0.8052100728        0.8875512701
 H          2.6245620121       -1.7133476813        0.8841154218
 H          3.1565073936       -0.2722238593       -0.0000021911
 H          2.6245597558       -1.7133512622       -0.8841114420
 C          1.5528564702        1.9050655044       -0.0000000506
 C         -1.6857705009        1.7639225598       -0.0000005340
 H         -1.1776268279        2.7239860391       -0.0000013325
 H         -2.3245983913        1.7074516169        0.8820693636
 H         -2.3245993159        1.7074506358       -0.8820696752
 H          2.6051113771        1.6377408138        0.0000038765
 H          1.3582984484        2.5147665399        0.8824220729
 H          1.3583040612        2.5147641557       -0.8824251987
          21
        -26.93826133
 N         -1.0639789281       -0.6673017058       -0.0001986935
 C         -0.0000173147       -1.5104577414        0.0001849914
 N          1.0639596067       -0.6673384789       -0.0000702969
 C          0.6800675876        0.6613148684       -0.0000579454
 C         -0.6800507295        0.6613282053       -0.0001060270
 C         -2.4274845268       -1.1130271738       -0.0003981821
 C          2.4274597384       -1.1130472682        0.0004603654
 H         -2.4235286799       -2.2010186515        0.0002027781
 H         -2.9541066327       -0.7549615371       -0.8884792004
 H         -2.9545049501       -0.7539596022        0.8870104173
 H          2.9545313529       -0.7551524047       -0.8873569338
 H          2.4235992302       -2.2010072290        0.0013013534
 H          2.9539827707       -0.7538031269        0.8880442600
 C          1.6623917058        1.7769631404       -0.0006075941
 C         -1.6623516023        1.7769876391        0.0007172716
 H         -1.1440129127        2.7320492108       -0.0012274538
 H         -2.2996546127        1.7301785418        0.8845003186
 H         -2.3033586510        1.7284830227       -0.8802462036
 H          2.3004230680        1.7308121156        0.8826762598
 H          1.1440467094        2.7320124673       -0.0028952480
 H          2.3026747503        1.7277958657       -0.8820907341
