  41
 
 N         -1.0518281329        0.1847780794       -0.4045205682
 C         -0.0104563190       -0.1598633221        0.3945832290
 N          1.0755543609        0.1671681592       -0.3569742625
 C          0.7184673871        0.6950650891       -1.5765958703
 C         -0.6316535404        0.7010186895       -1.6093620045
 C         -2.4166021390        0.0386086827       -0.0632154174
 C          2.4141146173       -0.0152980519        0.0547603186
 C         -3.1135180084       -1.0848485677       -0.5077451860
 C         -3.0380007470        1.0271138719        0.6999591263
 C          3.2273316865        1.0969643494        0.2746440799
 C          2.8984026687       -1.3136359913        0.2320235293
 H          1.4411015099        0.9943250112       -2.3082642547
 H         -1.3184036986        1.0268324265       -2.3645596935
 C         -4.3848244026        0.8838546488        0.9989315970
 C         -5.0925508167       -0.2174248279        0.5521937762
 C         -4.4596743655       -1.1966709641       -0.1915280611
 C          4.5475869324        0.8895921039        0.6509773139
 C          5.0441274534       -0.3896150365        0.8134044716
 C          4.2210473399       -1.4831233621        0.6108626289
 C         -2.4043511200       -2.1409079561       -1.2998043484
 C         -2.2477546556        2.2070251297        1.1768854096
 H         -4.8811655918        1.6424490842        1.5864777882
 H         -6.1414209228       -0.3161073228        0.7898962834
 H         -5.0137043503       -2.0603253880       -0.5296214226
 C          2.6889009437        2.4885270126        0.1216721235
 H          4.6092611413       -2.4820466036        0.7465966086
 C          1.9953754292       -2.4877113054        0.0085992825
 H          5.1869631546        1.7432583531        0.8236885257
 H          6.0734343280       -0.5355341798        1.1060771756
 H         -1.3749401768        1.8673604189        1.7333053710
 H         -2.8516463581        2.8435266564        1.8176865189
 H         -1.8949566484        2.7981506095        0.3311083749
 H         -2.0874384599       -1.7498736498       -2.2672948028
 H         -3.0521582094       -2.9968498319       -1.4681255531
 H         -1.5126834190       -2.4709751899       -0.7676386302
 H          2.5096870243       -3.4181035250        0.2333589483
 H          1.6576635319       -2.5162189900       -1.0280673348
 H          1.1150229285       -2.3995632037        0.6438252570
 H          3.2934985319        3.1923048755        0.6884369797
 H          1.6606536691        2.5448521467        0.4746516643
 H          2.7037849572        2.7970530772       -0.9242161357
          41
        -56.71150191
 N         -1.0644649465        0.0234593664        0.4505238009
 C         -0.0004364462        0.0026789935       -0.3948470348
 N          1.0645596114       -0.0165923906        0.4492704894
 C          0.6759492479       -0.0040357159        1.7698363777
 C         -0.6743051319        0.0132605143        1.7706197020
 C         -2.4130970519        0.0583580840        0.0316328518
 C          2.4128970483       -0.0565755802        0.0298276517
 C         -2.8916359899        1.1973657456       -0.6201745516
 C         -3.2401958968       -1.0387218772        0.2745444855
 C          2.8876008255       -1.1986873517       -0.6193552353
 C          3.2438273957        1.0380607739        0.2706315620
 H          1.3794980936       -0.0293136024        2.5769153250
 H         -1.3768771032        0.0398652981        2.5785071795
 C         -4.5689980462       -0.9681817185       -0.1213611546
 C         -5.0599765416        0.1594368515       -0.7514802181
 C         -4.2231022910        1.2316542267       -1.0046369462
 C          4.2194473964       -1.2390819275       -1.0019416172
 C          5.0603342339       -0.1698061245       -0.7497095176
 C          4.5728807056        0.9613481753       -0.1232191086
 C         -1.9742448929        2.3516883315       -0.8843700199
 C         -2.7055750227       -2.2739620947        0.9363571507
 H         -5.2198659683       -1.8107610267        0.0625432065
 H         -6.0958314090        0.2001519028       -1.0542043505
 H         -4.6070577850        2.1079836733       -1.5061663073
 C          1.9660052674       -2.3498324467       -0.8829296863
 H          5.2268714343        1.8016814261        0.0597329848
 C          2.7125324496        2.2773291561        0.9275543781
 H          4.6007452931       -2.1183670632       -1.5004348809
 H          6.0967905106       -0.2158883163       -1.0496183669
 H         -1.6956015166       -2.4880873606        0.5909808350
 H         -3.3409207300       -3.1276871869        0.7139960494
 H         -2.6723210151       -2.1506142538        2.0193026150
 H         -1.0928367347        2.0070236997       -1.4233274406
 H         -1.6397212768        2.7932738648        0.0551771712
 H         -2.4768870504        3.1174903159       -1.4685717627
 H          3.3531363411        3.1273761491        0.7061718879
 H          2.6736164533        2.1565773137        2.0105909614
 H          1.7051877528        2.4956112309        0.5770248716
 H          2.4640216108       -3.1150435762       -1.4718366811
 H          1.0829894453       -2.0012119174       -1.4167031130
 H          1.6348532842       -2.7936830614        0.0567723962
