41

  N     -1.057509    0.057119    0.466583
  C      0.000041    0.000121   -0.387582
  N      1.057607   -0.056464    0.466593
  C      0.675806   -0.035244    1.802980
  C     -0.675653    0.037089    1.802976
  C     -2.421567    0.131747    0.033118
  C      2.421630   -0.131663    0.033120
  C     -2.966334    1.389529   -0.262867
  C     -3.159555   -1.056063   -0.076078
  C      2.966206   -1.389764   -0.261883
  C      3.159804    1.055938   -0.077011
  H      1.394954   -0.074652    2.619464
  H     -1.394777    0.077231    2.619446
  C     -4.490495   -0.961552   -0.494885
  C     -5.056718    0.276266   -0.793101
  C     -4.300998    1.440779   -0.679525
  C      4.300857   -1.441546   -0.678516
  C      5.056755   -0.277239   -0.793022
  C      4.490721    0.960896   -0.495776
  C     -2.132766    2.638782   -0.153519
  C     -2.528043   -2.387581    0.232996
  H     -5.085893   -1.874918   -0.587885
  H     -6.099741    0.333350   -1.117580
  H     -4.748770    2.411216   -0.914453
  C      2.132463   -2.638811   -0.151555
  H      5.086251    1.874099   -0.589522
  C      2.528507    2.387783    0.231090
  H      4.748484   -2.412244   -0.912641
  H      6.099765   -0.334732   -1.117471
  H     -2.185382   -2.439725    1.278636
  H     -1.644063   -2.559982   -0.401504
  H     -3.241950   -3.205429    0.064029
  H     -1.624654    2.700503    0.821562
  H     -2.755209    3.535334   -0.279748
  H     -1.345406    2.654023   -0.924280
  H      3.242455    3.205436    0.061358
  H      2.186044    2.440777    1.276756
  H      1.644423    2.559756   -0.403376
  H      1.345161   -2.654624   -0.922365
  H      1.624258   -2.699637    0.823534
  H      2.754806   -3.535551   -0.276950
41

  N     -1.058194    0.042270    0.469854
  C     -0.000066   -0.000958   -0.384452
  N      1.058505   -0.042482    0.469393
  C      0.676652   -0.026618    1.806194
  C     -0.675673    0.028501    1.806490
  C     -2.421643    0.097977    0.032708
  C      2.421770   -0.098292    0.031692
  C     -3.041609    1.350844   -0.083249
  C     -3.085834   -1.101519   -0.262587
  C      3.042388   -1.351022   -0.082154
  C      3.085147    1.101029   -0.266171
  H      1.396584   -0.056139    2.622492
  H     -1.395190    0.059435    2.623102
  C     -4.416329   -1.024656   -0.687399
  C     -5.055270    0.207547   -0.809232
  C     -4.372910    1.385008   -0.510400
  C      4.373521   -1.385245   -0.509828
  C      5.055076   -0.207967   -0.811197
  C      4.415496    1.024111   -0.691424
  C     -2.288661    2.615715    0.235659
  C     -2.380099   -2.426206   -0.136859
  H     -4.955231   -1.947433   -0.923122
  H     -6.096755    0.250573   -1.140834
  H     -4.876052    2.351723   -0.609203
  C      2.290300   -2.615703    0.239531
  H      4.953783    1.946732   -0.929157
  C      2.378710    2.425548   -0.142621
  H      4.877158   -2.351861   -0.607065
  H      6.096429   -0.251044   -1.143209
  H     -1.923143   -2.545435    0.858177
  H     -1.565715   -2.508385   -0.874703
  H     -3.079665   -3.257422   -0.300776
  H     -2.901480    3.500595    0.015526
  H     -1.358128    2.678946   -0.350482
  H     -2.001321    2.652684    1.298738
  H      1.564137    2.505984   -0.880450
  H      3.077778    3.256869   -0.308118
  H      1.921857    2.546240    0.852287
  H      2.004387   -2.651232    1.303048
  H      2.903163   -3.500676    0.019893
  H      1.359026   -2.680119   -0.345288
41

  N     -1.059444    0.068827    0.475114
  C      0.007729    0.064768   -0.368294
  N      1.059407    0.006563    0.494120
  C      0.662016   -0.030842    1.826205
  C     -0.690569    0.011910    1.814313
  C     -2.417350    0.121473    0.020674
  C      2.420590   -0.068365    0.055519
  C     -3.013151    1.375287   -0.181626
  C     -3.099508   -1.081973   -0.208769
  C      2.987207   -1.329404   -0.175810
  C      3.134757    1.123072   -0.137364
  H      1.373801   -0.071723    2.649230
  H     -1.418125    0.012373    2.624411
  C     -4.422225   -1.008880   -0.658079
  C     -5.036609    0.223975   -0.866687
  C     -4.337235    1.405896   -0.630443
  C      4.313398   -1.380264   -0.616610
  C      5.043297   -0.211229   -0.819602
  C      4.457782    1.030466   -0.582129
  C     -2.243098    2.643556    0.076400
  C     -2.418273   -2.407425    0.008833
  H     -4.973373   -1.935326   -0.846240
  H     -6.071919    0.264048   -1.217403
  H     -4.822129    2.373241   -0.793543
  C      2.185777   -2.588272    0.023566
  H      5.031088    1.948895   -0.740634
  C      2.488413    2.461618    0.104987
  H      4.776654   -2.354418   -0.801310
  H      6.079163   -0.270432   -1.165864
  H     -1.529638   -2.503304   -0.635574
  H     -3.100909   -3.238694   -0.214960
  H     -2.073033   -2.515383    1.049336
  H     -2.855500    3.526436   -0.152820
  H     -1.329491    2.681670   -0.537753
  H     -1.924360    2.708367    1.129192
  H      1.681871    2.649242   -0.622469
  H      3.225776    3.271445    0.014924
  H      2.036588    2.516894    1.107651
  H      1.704415   -2.629354    1.012627
  H      2.831173   -3.471280   -0.081214
  H      1.382036   -2.660312   -0.727247
41

  N     -1.061702    0.051196    0.467226
  C      0.000041    0.003858   -0.382327
  N      1.054957   -0.034075    0.475905
  C      0.667551   -0.012120    1.810827
  C     -0.684740    0.043428    1.805210
  C     -2.423049    0.103511    0.023885
  C      2.419615   -0.095007    0.043881
  C     -3.046017    1.354811   -0.092919
  C     -3.081906   -1.097500   -0.277378
  C      3.021451   -1.352260   -0.111479
  C      3.102509    1.103682   -0.208163
  H      1.384191   -0.037346    2.630151
  H     -1.407652    0.078809    2.618642
  C     -4.410469   -1.023547   -0.708686
  C     -5.052285    0.206873   -0.831091
  C     -4.375143    1.385753   -0.526596
  C      4.354506   -1.391454   -0.532432
  C      5.055799   -0.214824   -0.787226
  C      4.434331    1.021827   -0.627684
  C     -2.297159    2.620898    0.230084
  C     -2.372587   -2.420067   -0.152094
  H     -4.945352   -1.947534   -0.948698
  H     -6.092200    0.247493   -1.167843
  H     -4.880594    2.351166   -0.626071
  C      2.247180   -2.615251    0.158529
  H      4.987492    1.944026   -0.830094
  C      2.413051    2.432639   -0.044834
  H      4.844768   -2.361436   -0.659821
  H      6.098675   -0.261978   -1.113810
  H     -3.070677   -3.253225   -0.312454
  H     -1.912184   -2.536621    0.841685
  H     -1.560191   -2.502099   -0.892023
  H     -2.007425    2.655524    1.292510
  H     -2.912722    3.504703    0.013501
  H     -1.367829    2.688895   -0.357485
  H      1.582746    2.534791   -0.761988
  H      3.116887    3.259870   -0.210416
  H      1.980540    2.540255    0.962439
  H      1.350638   -2.670994   -0.479466
  H      1.899013   -2.656565    1.202966
  H      2.866940   -3.501856   -0.033158
41

  N     -1.056538    0.058607    0.484772
  C     -0.008120   -0.051013   -0.374804
  N      1.057668   -0.068613    0.470209
  C      0.689910    0.029250    1.807219
  C     -0.661452    0.110286    1.816524
  C     -2.421075    0.141503    0.052507
  C      2.415921   -0.160255    0.021383
  C     -2.987203    1.410157   -0.134757
  C     -3.133697   -1.045857   -0.170887
  C      2.976201   -1.430086   -0.173825
  C      3.129715    1.025150   -0.207806
  H      1.416855    0.028995    2.617612
  H     -1.372433    0.198456    2.636285
  C     -4.461351   -0.938798   -0.596086
  C     -5.049740    0.310474   -0.785284
  C     -4.319384    1.474053   -0.557310
  C      4.303371   -1.496967   -0.611842
  C      5.035596   -0.335409   -0.844357
  C      4.453285    0.915209   -0.645269
  C     -2.174752    2.656885    0.093519
  C     -2.475263   -2.384370    0.030122
  H     -5.038347   -1.850578   -0.777118
  H     -6.090294    0.377025   -1.115487
  H     -4.783900    2.453224   -0.707945
  C      2.166818   -2.676229    0.067475
  H      5.030562    1.825620   -0.832376
  C      2.475088    2.367102   -0.012821
  H      4.764314   -2.477105   -0.767296
  H      6.072543   -0.404701   -1.185189
  H     -3.182348   -3.202226   -0.164856
  H     -2.091982   -2.492753    1.056975
  H     -1.612435   -2.501709   -0.644787
  H     -1.307058    2.690116   -0.585013
  H     -1.776655    2.697402    1.119565
  H     -2.782393    3.556025   -0.077369
  H      3.190625    3.180514   -0.195061
  H      2.074925    2.479463    1.007036
  H      1.625181    2.490457   -0.703268
  H      2.795927   -3.572858   -0.017748
  H      1.346293   -2.759077   -0.663473
  H      1.702554   -2.668366    1.065918
41

  N     -1.049644    0.415943    0.217920
  C     -0.009519   -0.350498   -0.209467
  N      1.066376    0.327997    0.273948
  C      0.712288    1.474139    0.977026
  C     -0.639418    1.530575    0.940782
  C     -2.422373    0.105734   -0.051161
  C      2.421065   -0.098142    0.083029
  C     -3.045414    0.705634   -1.155396
  C     -3.093704   -0.782146    0.802311
  C      3.092334    0.288021   -1.086325
  C      3.027798   -0.880852    1.076402
  H      1.449223    2.134268    1.431721
  H     -1.342025    2.250902    1.356795
  C     -4.434656   -1.067641    0.525259
  C     -5.076735   -0.483590   -0.564903
  C     -4.387377    0.394710   -1.398491
  C      4.416968   -0.130899   -1.248844
  C      5.043149   -0.906597   -0.275214
  C      4.353581   -1.279541    0.876691
  C     -2.284782    1.647799   -2.050976
  C     -2.383556   -1.412097    1.971357
  H     -4.978575   -1.757767    1.177522
  H     -6.126004   -0.716777   -0.768038
  H     -4.893046    0.848943   -2.256153
  C      2.398301    1.116544   -2.134988
  H      4.846681   -1.892130    1.637726
  C      2.265819   -1.282982    2.311631
  H      4.960566    0.158770   -2.153381
  H      6.079913   -1.225631   -0.416527
  H     -1.557792   -2.055031    1.626926
  H     -3.076040   -2.023818    2.565847
  H     -1.940456   -0.648122    2.629794
  H     -1.976563    2.555380   -1.507420
  H     -2.900682    1.954705   -2.907469
  H     -1.365700    1.174636   -2.431618
  H      1.970331   -0.402561    2.904573
  H      2.874490   -1.937902    2.950203
  H      1.338865   -1.815956    2.046122
  H      1.997061    2.049579   -1.708545
  H      1.544627    0.568080   -2.564377
  H      3.089535    1.375787   -2.948719
