  28
 
 N         -1.1247863324        0.3462343235       -0.0867821658
 C         -0.1611786367       -0.5687885703       -0.1375719019
 N          1.0168875685        0.0091178639        0.0737734514
 H         -0.3044332961       -1.6139050818       -0.3268416352
 C          0.8000388819        1.3381297255        0.2733173708
 C         -0.5412222109        1.5479568199        0.1732876743
 C         -2.5613704191        0.1178903569       -0.2125149048
 C          2.3101284491       -0.6664797123        0.1100580276
 C         -2.8557251429       -0.9116431136       -1.2960951478
 H         -2.9976441606        1.0805132764       -0.4973929627
 C         -3.1176551064       -0.3083994224        1.1444778341
 C          2.8625757906       -0.6265852367        1.5319889889
 C          3.2629079571       -0.0242043294       -0.8924117190
 H          2.1236527177       -1.7055012379       -0.1798826764
 H          1.5884671095        2.0353734778        0.4652671918
 H         -1.1044652200        2.4540266658        0.2646857735
 H         -2.3420536813       -0.6627518048       -2.2216477148
 H         -3.9230800799       -0.9215057958       -1.4958359568
 H         -2.5686409831       -1.9123113550       -0.9844404656
 H         -2.9061535085        0.4390308060        1.9053306605
 H         -2.6892469942       -1.2580849557        1.4560627264
 H         -4.1944658438       -0.4262771502        1.0730590527
 H          3.7927608063       -1.1849982451        1.5728866947
 H          2.1640963131       -1.0761192488        2.2340454016
 H          3.0651163296        0.3946398620        1.8440251803
 H          2.8185063949        0.0122415624       -1.8841089872
 H          4.1728687177       -0.6137399467       -0.9498753971
 H          3.5336830746        0.9835246708       -0.5904305844
          28
        -33.43928092
 N         -1.0874039001       -0.0009806879       -0.0795839671
 C         -0.0000277974        0.0088584467       -0.8436703082
 N          1.0873739443        0.0010778688       -0.0796100788
 H         -0.0000129292        0.0212303873       -1.9163704178
 C          0.6805789444       -0.0140985474        1.2196002837
 C         -0.6805599396       -0.0154252942        1.2196187882
 C         -2.4699592493        0.0033054127       -0.5469744696
 C          2.4699269211        0.0068405846       -0.5469910504
 C         -3.1773000610       -1.2614766556       -0.0706556211
 H         -2.4260676513        0.0060882347       -1.6407200264
 C         -3.1713092092        1.2689540624       -0.0639999934
 C          3.1741123943       -1.2643392929       -0.0831116468
 C          3.1745636795        1.2657684982       -0.0515435683
 H          2.4260313850        0.0204657885       -1.6406614963
 H          1.3626108969       -0.0229834800        2.0439068093
 H         -1.3625727814       -0.0254573115        2.0439439551
 H         -2.6388104424       -2.1515047265       -0.3874915695
 H         -4.1746139299       -1.2976613089       -0.4982309366
 H         -3.2727315469       -1.2748778033        1.0115543541
 H         -4.1717758982        1.3076575970       -0.4839490080
 H         -2.6334091522        2.1583101138       -0.3836606844
 H         -3.2581239686        1.2810114553        1.0189830403
 H          4.1729690123       -1.2967855441       -0.5074019206
 H          2.6356167008       -2.1498157797       -0.4123874248
 H          3.2652753060       -1.2905810550        0.9992620114
 H          4.1731765078        1.3086787427       -0.4754586382
 H          3.2664243218        1.2646869942        1.0310890847
 H          2.6361244036        2.1594065139       -0.3580582123
