  21
 
 N         -1.0055689923       -0.5473532249       -0.1775375102
 C          0.2594059192       -0.8859626448       -0.1788570974
 N          1.2580056642       -0.0667534645        0.0370605173
 H          0.4978487382       -1.9261074420       -0.3658372474
 C         -2.0612816637       -1.5070005394       -0.3919640416
 C          2.6306936011       -0.5103789990        0.0509305376
 H         -1.6587971004       -2.5151609000       -0.4550457477
 H         -2.5940817244       -1.2811636246       -1.3176171657
 H         -2.7720200694       -1.4624338672        0.4344077039
 H          3.0962220783       -0.2387687241        0.9992921044
 H          3.1887125912       -0.0327372666       -0.7561072616
 H          2.6882639606       -1.5888082816       -0.0726658167
 C         -1.4039482438        0.8325442077        0.0439775543
 C          1.0178296784        1.3458658395        0.2792734970
 C         -0.2819430008        1.7642355421       -0.3963979861
 H         -1.6355832075        0.9765604531        1.1045462407
 H         -2.3119379871        1.0279593942       -0.5293150806
 H         -0.5253703703        2.7917398259       -0.1343040234
 H         -0.1643292003        1.7071214156       -1.4798586554
 H          1.8588152847        1.9148798756       -0.1209392686
 H          0.9705186503        1.5252763902        1.3584474167
          21
        -24.95856110
 N         -1.1619738525       -0.3557867051        0.0343648436
 C         -0.0000116337       -0.9531402131       -0.0545619859
 N          1.1619478967       -0.3558208691        0.0344901682
 H         -0.0000672180       -2.0259064169       -0.2057833804
 C         -2.4085624920       -1.0780037647       -0.0419683332
 C          2.4085195817       -1.0780454140       -0.0421483455
 H         -3.0120995936       -0.8646273542        0.8412568414
 H         -2.2307257457       -2.1491162240       -0.0955297776
 H         -2.9695969583       -0.7690333317       -0.9256716758
 H          2.9703102514       -0.7674033549       -0.9247922294
 H          2.2305610245       -2.1490240419       -0.0980059680
 H          3.0113631616       -0.8664983916        0.8420071812
 C         -1.2433143018        1.0834842031        0.2180178263
 C          1.2433299684        1.0834281670        0.2183039891
 C          0.0000753344        1.7427557575       -0.3652808621
 H         -1.3378334529        1.3074317292        1.2857503798
 H         -2.1415439051        1.4473176358       -0.2840707681
 H          0.0000324036        2.8067943552       -0.1381799202
 H          0.0001346843        1.6254965378       -1.4503089234
 H          2.1416763001        1.4472639918       -0.2835888523
 H          1.3377153004        1.3072639016        1.2860738113
