60

N	4.974952492521056	1.603113773471398	3.1033711936765314	1.0	0.0	0.0	0.8
C	6.0894477816540595	2.018003015693703	2.443919028155098	1.0	0.0	0.0	0.8
N	7.164967969043037	1.6348940118898319	3.121033830690818	1.0	0.0	0.0	0.8
H	6.058618774719536	2.5837932137442556	1.5041989542545646	1.0	0.0	0.0	0.8
C	6.729326453628537	0.9103473422529818	4.2423546373745795	1.0	0.0	0.0	0.8
C	5.367220080846598	0.8923525132234554	4.251256231761884	1.0	0.0	0.0	0.8
C	3.6008311443322274	1.8195690170579846	2.724408965684362	1.0	0.0	0.0	0.8
C	8.558022222997563	1.8385675434031432	2.739705277194371	1.0	0.0	0.0	0.8
C	2.9550037833094365	0.8964157735827064	1.9195821705803644	1.0	0.0	0.0	0.8
C	2.9547109277667705	2.975557236285908	3.129517318700025	1.0	0.0	0.0	0.8
C	8.88304263284126	1.7825392085438818	1.383344624079132	1.0	0.0	0.0	0.8
C	9.489289326511761	2.1103675217557534	3.737914419289082	1.0	0.0	0.0	0.8
H	7.4472466768096215	0.4534359327750117	4.928753895890695	1.0	0.0	0.0	0.8
H	4.647747198981741	0.4613144638663491	4.940123287099365	1.0	0.0	0.0	0.8
C	1.6394813313809418	1.1252127934453506	1.5312166570161623	1.0	0.0	0.0	0.8
H	3.4708626001792737	0.0004515925058134552	1.5903647111520265	1.0	0.0	0.0	0.8
C	1.6395247380076259	3.20069448916734	2.738139392392373	1.0	0.0	0.0	0.8
C	10.209107370219003	1.9872728613789215	1.0254368762052413	1.0	0.0	0.0	0.8
C	11.156436274576468	2.2840120845374057	2.0035668876700163	1.0	0.0	0.0	0.8
C	10.800982865302284	2.3562622608874553	3.349284872193165	1.0	0.0	0.0	0.8
C	0.9738073577691041	2.276266411645317	1.9399235944247974	1.0	0.0	0.0	0.8
H	1.158487546901732	4.104994094704958	3.0660061535930665	1.0	0.0	0.0	0.8
H	9.206217971584644	2.188251990294649	4.780898402271787	1.0	0.0	0.0	0.8
H	8.144405728971659	1.555446666379186	0.6226661755412698	1.0	0.0	0.0	0.8
H	10.509141831570908	1.9426656324642546	-0.01027019894713972	1.0	0.0	0.0	0.8
H	12.1733979785392	2.4635303059548606	1.7161443170126283	1.0	0.0	0.0	0.8
H	11.553021269806603	2.5920006442375265	4.0865348210233154	1.0	0.0	0.0	0.8
H	-0.0466666133049283	2.4513137554762605	1.639103880922631	1.0	0.0	0.0	0.8
H	1.156908460416747	0.39279751102395194	0.9086124201345289	1.0	0.0	0.0	0.8
H	3.470422826271143	3.7032893296728884	3.7480221507836604	1.0	0.0	0.0	0.8
N	4.974952492521058	1.603113773471398	3.1033711936765314	0.0	0.0	1.0	0.8
C	6.08944778165406	2.018003015693703	2.4439190281550975	0.0	0.0	1.0	0.8
N	7.164967969043037	1.6348940118898319	3.1210338306908176	0.0	0.0	1.0	0.8
H	6.058618774719537	2.583793213744256	1.5041989542545642	0.0	0.0	1.0	0.8
C	6.729326453628539	0.9103473422529816	4.24235463737458	0.0	0.0	1.0	0.8
C	5.367220080846599	0.8923525132234553	4.251256231761884	0.0	0.0	1.0	0.8
C	3.6008311443322287	1.8195690170579846	2.7244089656843617	0.0	0.0	1.0	0.8
C	8.558022222997565	1.8385675434031432	2.7397052771943713	0.0	0.0	1.0	0.8
C	2.9550037833094382	0.8964157735827063	1.9195821705803637	0.0	0.0	1.0	0.8
C	2.9547109277667722	2.9755572362859084	3.129517318700025	0.0	0.0	1.0	0.8
C	8.883042632841258	1.7825392085438823	1.3833446240791314	0.0	0.0	1.0	0.8
C	9.489289326511763	2.110367521755754	3.737914419289082	0.0	0.0	1.0	0.8
H	7.447246676809622	0.45343593277501104	4.928753895890696	0.0	0.0	1.0	0.8
H	4.647747198981742	0.46131446386634845	4.940123287099365	0.0	0.0	1.0	0.8
C	1.639481331380943	1.1252127934453506	1.5312166570161618	0.0	0.0	1.0	0.8
H	3.470862600179276	0.0004515925058128367	1.5903647111520258	0.0	0.0	1.0	0.8
C	1.639524738007628	3.2006944891673403	2.7381393923923727	0.0	0.0	1.0	0.8
C	10.209107370219	1.9872728613789217	1.0254368762052408	0.0	0.0	1.0	0.8
C	11.156436274576464	2.2840120845374057	2.003566887670016	0.0	0.0	1.0	0.8
C	10.800982865302286	2.3562622608874553	3.349284872193165	0.0	0.0	1.0	0.8
C	0.9738073577691058	2.276266411645318	1.9399235944247968	0.0	0.0	1.0	0.8
H	1.1584875469017337	4.104994094704958	3.066006153593066	0.0	0.0	1.0	0.8
H	9.206217971584643	2.1882519902946496	4.780898402271788	0.0	0.0	1.0	0.8
H	8.144405728971662	1.555446666379186	0.6226661755412688	0.0	0.0	1.0	0.8
H	10.509141831570904	1.9426656324642546	-0.010270198947140319	0.0	0.0	1.0	0.8
H	12.173397978539201	2.463530305954861	1.7161443170126278	0.0	0.0	1.0	0.8
H	11.553021269806603	2.592000644237527	4.0865348210233154	0.0	0.0	1.0	0.8
H	-0.04666661330492605	2.4513137554762614	1.6391038809226304	0.0	0.0	1.0	0.8
H	1.1569084604167488	0.39279751102395166	0.9086124201345278	0.0	0.0	1.0	0.8
H	3.470422826271144	3.7032893296728893	3.7480221507836604	0.0	0.0	1.0	0.8
