60

N	4.980411332894217	1.9623092171321883	1.0737150594850495	1.0	0.0	0.0	0.8
C	6.073204672367635	2.690485051533639	0.7975061611916291	1.0	0.0	0.0	0.8
N	7.16607521617216	1.962284322088975	1.0734166573187323	1.0	0.0	0.0	0.8
H	6.073176551089622	3.7110521320352214	0.4037697445390341	1.0	0.0	0.0	0.8
C	6.761402199776329	0.7396224219377767	1.5867209543563665	1.0	0.0	0.0	0.8
C	5.385187155499786	0.7396699687073676	1.5869264295527787	1.0	0.0	0.0	0.8
C	3.6000378679588345	2.3879846640456623	0.9360875305652161	1.0	0.0	0.0	0.8
C	8.546413017275613	2.388005198246768	0.9357546269238116	1.0	0.0	0.0	0.8
C	2.656991162845118	1.4561832038908853	0.5053982339214022	1.0	0.0	0.0	0.8
C	3.286950196497938	3.7216044142334535	1.2083875497228347	1.0	0.0	0.0	0.8
C	9.489321214313119	1.4564407809925928	0.5042378235476387	1.0	0.0	0.0	0.8
C	8.859667471899469	3.7213415867135677	1.209223581908419	1.0	0.0	0.0	0.8
H	7.4765359680354555	-0.018533652005524023	1.9166381111979531	1.0	0.0	0.0	0.8
H	4.670112481566301	-0.01840532004642829	1.917129538962474	1.0	0.0	0.0	0.8
C	1.3492883259509985	1.8895308491066443	0.32861519848834336	1.0	0.0	0.0	0.8
H	2.9240303608112685	0.4372713649265159	0.25191077683099194	1.0	0.0	0.0	0.8
C	1.962740828337281	4.117320758072275	1.0664391090765895	1.0	0.0	0.0	0.8
C	10.797093789099941	1.889733015389941	0.3278790056007061	1.0	0.0	0.0	0.8
C	11.140681088051002	3.208461173190204	0.619008298859991	1.0	0.0	0.0	0.8
C	10.183947037319077	4.116965347990551	1.0677084498588887	1.0	0.0	0.0	0.8
C	1.0058797389019243	3.208580593763501	0.6184911864425189	1.0	0.0	0.0	0.8
H	1.6723343856592485	5.134387291224625	1.27986865639965	1.0	0.0	0.0	0.8
H	8.116343920762015	4.431154549939333	1.5595566649549817	1.0	0.0	0.0	0.8
H	9.22205311672353	0.4378143161993329	0.24986510701060036	1.0	0.0	0.0	0.8
H	11.551691984915866	1.202437807547508	-0.021370437641392986	1.0	0.0	0.0	0.8
H	12.155156122205273	3.5281346847364965	0.4928063083540019	1.0	0.0	0.0	0.8
H	10.474539055514027	5.133794649542574	1.2820150214921453	1.0	0.0	0.0	0.8
H	-0.008551615403580513	3.528273441379267	0.4919764650972125	1.0	0.0	0.0	0.8
H	0.5946003962321182	1.2020019968288158	-0.019985078127419974	1.0	0.0	0.0	0.8
H	4.030325838701149	4.431621442426481	1.5581715350917065	1.0	0.0	0.0	0.8
N	4.973788021981911	2.2638221014261366	1.3882688815922894	0.0	0.0	1.0	0.8
C	6.092763636014712	2.6021775896176873	0.6936329120133043	0.0	0.0	1.0	0.8
N	7.163578604289723	2.3014345969617604	1.4181393606915362	0.0	0.0	1.0	0.8
H	6.0683898551539635	3.0561096997455555	-0.30511347790342	0.0	0.0	1.0	0.8
C	6.720296234383359	1.7098248786238628	2.612128656973025	0.0	0.0	1.0	0.8
C	5.358179662903467	1.6904774582794002	2.613101309781863	0.0	0.0	1.0	0.8
C	3.6023199049324828	2.4327511721790485	0.9769139311654651	0.0	0.0	1.0	0.8
C	8.55923796749024	2.462464306356426	1.0260948450882768	0.0	0.0	1.0	0.8
C	2.9634195038273776	1.4220003885321206	0.27888800605464437	0.0	0.0	1.0	0.8
C	2.9520623870950224	3.626466113345168	1.2416830280480786	0.0	0.0	1.0	0.8
C	8.894421174705364	2.251449830959284	-0.31241805033526593	0.0	0.0	1.0	0.8
C	9.482766509773121	2.8489406596747227	1.9931968033100116	0.0	0.0	1.0	0.8
H	7.433524498187823	1.3361814441156397	3.3517349391356137	0.0	0.0	1.0	0.8
H	4.634011713003565	1.3401860972175519	3.3416955661173398	0.0	0.0	1.0	0.8
C	1.6506066574810676	1.6022155372527558	-0.14279920099777732	0.0	0.0	1.0	0.8
H	3.4825981857373747	0.4950717684220942	0.05865381756723986	0.0	0.0	1.0	0.8
C	1.6396118526999501	3.802700024426382	0.8174267600682639	0.0	0.0	1.0	0.8
C	10.222917182422343	2.41610280585619	-0.6818084503806464	0.0	0.0	1.0	0.8
C	11.162632377694091	2.8250737058437387	0.2625975500548914	0.0	0.0	1.0	0.8
C	10.797080503630276	3.050922969629616	1.5884512544401477	0.0	0.0	1.0	0.8
C	0.980773934579739	2.791406551202031	0.12596926343627934	0.0	0.0	1.0	0.8
H	1.1552557097678893	4.737817266696499	1.0356148415848252	0.0	0.0	1.0	0.8
H	9.191847195335523	3.045711330559654	3.018213011350149	0.0	0.0	1.0	0.8
H	8.161701796017105	1.9370483363818134	-1.0473066220500544	0.0	0.0	1.0	0.8
H	10.530712203699892	2.253256390920968	-1.703298978193005	0.0	0.0	1.0	0.8
H	12.181533087082677	2.972216557358852	-0.036133029107033976	0.0	0.0	1.0	0.8
H	11.54336727526108	3.3712437126449966	2.2991709673839424	0.0	0.0	1.0	0.8
H	-0.037599058469650615	2.9288350822503784	-0.2004216741445909	0.0	0.0	1.0	0.8
H	1.1734098425714503	0.8021882972613057	-0.6805578574690455	0.0	0.0	1.0	0.8
H	3.4624324627198146	4.421430598028595	1.7761499057065024	0.0	0.0	1.0	0.8
