  41
 
 N         -1.0524732580        0.1807796802       -0.4007291842
 C         -0.0104020452       -0.1675088590        0.3969676885
 N          1.0758262301        0.1606505658       -0.3551126593
 C          0.7179021561        0.6927823217       -1.5726687306
 C         -0.6324098567        0.7006680793       -1.6040346876
 C         -2.4189288776        0.0382942004       -0.0592755778
 C          2.4164366595       -0.0195333302        0.0551877890
 C         -3.1157566847       -1.0894049042       -0.4939765520
 C         -3.0414689650        1.0358304363        0.6915630534
 C          3.2243728282        1.0952413633        0.2829723944
 C          2.9071951729       -1.3171468335        0.2212278430
 H          1.4403175468        0.9943697199       -2.3034790524
 H         -1.3195961743        1.0288085891       -2.3579439309
 C         -4.3887959080        0.8951328358        0.9911504296
 C         -5.0960161341       -0.2114130847        0.5565344718
 C         -4.4623827878       -1.1978641185       -0.1771722668
 C          4.5453984371        0.8909074799        0.6594170247
 C          5.0475566342       -0.3871186952        0.8146754605
 C          4.2300921595       -1.4828672736        0.6020833471
 C         -2.4096182094       -2.1533802541       -1.2781885910
 C         -2.2556307466        2.2240628492        1.1554031278
 H         -4.8854383445        1.6600163070        1.5696930244
 H         -6.1447297768       -0.3077791733        0.7947681530
 H         -5.0161534515       -2.0642171502       -0.5078186067
 C          2.6838204050        2.4866096416        0.1357466659
 H          4.6226826928       -2.4807738580        0.7308393723
 C          2.0141846351       -2.4961140973       -0.0176003813
 H          5.1806313006        1.7461498529        0.8376805334
 H          6.0765433126       -0.5303318061        1.1089104939
 H         -1.3847213418        1.8949398270        1.7212763952
 H         -2.8644261434        2.8677617503        1.7836034654
 H         -1.8999643992        2.8032904362        0.3027214772
 H         -2.0873222963       -1.7684653132       -2.2461169870
 H         -3.0621282055       -3.0057827950       -1.4439273006
 H         -1.5219148265       -2.4857838576       -0.7413302906
 H          2.5397865839       -3.4243266839        0.1868681177
 H          1.6698999424       -2.5086522626       -1.0521489120
 H          1.1371743690       -2.4296583016        0.6247240380
 H          3.2772456383        3.1854607982        0.7190829255
 H          1.6499440301        2.5368274127        0.4720088604
 H          2.7155152124        2.8046697108       -0.9065096054
          41
        -56.71753151
 N         -1.0647774156       -0.0166377987        0.4437436141
 C          0.0001175258       -0.0018717514       -0.4015825692
 N          1.0647144112        0.0225611755        0.4436511502
 C          0.6750650990        0.0190762749        1.7639828482
 C         -0.6753020011        0.0020594503        1.7639761738
 C         -2.4154896240       -0.0546832634        0.0277397861
 C          2.4157512814        0.0553499992        0.0280200083
 C         -3.2377436817        1.0499880223        0.2536492406
 C         -2.9003013784       -1.2044919684       -0.6003081635
 C          3.2344984961       -1.0509880217        0.2584344725
 C          2.9040421766        1.2013930409       -0.6039863198
 H          1.3790041161        0.0483316335        2.5706460428
 H         -1.3791481020       -0.0180681399        2.5709771197
 C         -4.2336730606       -1.2409256943       -0.9793420947
 C         -5.0658614899       -0.1609854180       -0.7435044364
 C         -4.5684692146        0.9765183548       -0.1361940874
 C          4.5653920925       -0.9831987643       -0.1316863127
 C          5.0662318609        0.1505401003       -0.7433761861
 C          4.2375449541        1.2322867701       -0.9831661654
 C         -2.6982008533        2.2950796027        0.8924549641
 C         -1.9904837469       -2.3692206283       -0.8454975319
 H         -4.6226162346       -2.1253851469       -1.4619953663
 H         -6.1029321062       -0.2039001928       -1.0409926666
 H         -5.2157234414        1.8242567499        0.0347992218
 C          2.6900402711       -2.2911868812        0.9024805883
 H          4.6292263764        2.1136200176       -1.4692601676
 C          1.9973447738        2.3676509637       -0.8533780777
 H          5.2101479614       -1.8321572501        0.0426618877
 H          6.1033669040        0.1889962848       -1.0412640687
 H         -1.1083907327       -2.0408012445       -1.3933106039
 H         -2.4997840700       -3.1417453306       -1.4141997615
 H         -1.6565896254       -2.7952143523        0.1012813791
 H         -2.6597908755        2.1881685821        1.9766732070
 H         -3.3335665564        3.1453036387        0.6591375059
 H         -1.6895798296        2.5016247630        0.5388139528
 H          1.6632855113        2.7968462227        0.0918531678
 H          1.1151162122        2.0400873195       -1.4014868191
 H          2.5091225121        3.1375060422       -1.4234247883
 H          1.6851562929       -2.5013779921        0.5403405825
 H          2.6402483769       -2.1749351354        1.9852431366
 H          3.3283229695       -3.1427880973        0.6828058097
