  41
 
 N         -2.0489600000       -0.6801200000        0.4423100000
 C         -1.0222600000       -1.5867600000       -0.0119800000
 N          0.0618500000       -0.7577600000       -0.5155400000
 C         -0.3674600000        0.5908000000       -0.3548900000
 C         -1.6094400000        0.6290400000        0.2073400000
 C         -3.3053600000       -1.0634000000        1.0218200000
 C          1.3137300000       -1.2794200000       -1.0677600000
 C         -4.0723300000       -2.1399500000        0.4679200000
 C         -3.8269700000       -0.3846900000        2.1714900000
 C          2.3885300000       -0.4270500000       -1.5306500000
 C          1.5375100000       -2.7083600000       -1.1738900000
 H          0.1294200000        1.4987600000       -0.6145100000
 H         -2.1705900000        1.5306700000        0.4167000000
 C         -5.0641900000       -0.7720800000        2.7088500000
 C         -5.7887700000       -1.8179400000        2.1575500000
 C         -5.2965900000       -2.4976500000        1.0536300000
 C          3.5698200000       -0.9914500000       -2.0468100000
 C          3.7418500000       -2.3573100000       -2.1304600000
 C          2.7420300000       -3.2041500000       -1.7016100000
 C         -3.6989400000       -2.9223700000       -0.7697100000
 C         -3.1122600000        0.7107600000        2.9274600000
 H         -5.4647000000       -0.2687500000        3.5813400000
 H         -6.7379900000       -2.1059500000        2.5910900000
 H         -5.8877600000       -3.3055000000        0.6378400000
 C          2.3747100000        1.0780900000       -1.5150000000
 H          2.9190300000       -4.2699100000       -1.7857700000
 C          0.5478300000       -3.7723700000       -0.7516400000
 H          4.3830800000       -0.3662400000       -2.3963600000
 H          4.6611300000       -2.7642200000       -2.5327400000
 H         -2.0848800000        0.9176200000        2.5918700000
 H         -3.0077200000        0.4049000000        3.9903900000
 H         -3.7070400000        1.6476100000        2.8858400000
 H         -2.8012700000       -2.5711100000       -1.2980400000
 H         -4.5226400000       -2.8396900000       -1.5105600000
 H         -3.5635000000       -3.9934000000       -0.5092000000
 H          0.9229900000       -4.8036100000       -0.9265000000
 H         -0.3875300000       -3.6806900000       -1.3417800000
 H          0.3474500000       -3.7001600000        0.3374400000
 H          3.3139700000        1.5236800000       -1.9077400000
 H          2.2831600000        1.4432800000       -0.4712500000
 H          1.5704500000        1.4522600000       -2.1809200000
