  42
 
 N         -1.0788815675        0.2258012525        0.4255675598
 C         -0.0051288392       -0.0968974174       -0.2885853800
 N          1.0863933532        0.1914333228        0.4142578931
 H         -0.0167727235       -0.5128859386       -1.2771539630
 C          0.6982959728        0.7126089620        1.6133751199
 C         -0.6623930416        0.7338182432        1.6206749159
 C         -2.4395009203        0.0603052163        0.0265615653
 C          2.4360486116       -0.0157457510        0.0001298077
 C         -3.0526062587       -1.1745123578        0.2389303139
 C         -3.1065392870        1.1438998170       -0.5449729139
 C          2.9561482611       -1.3100424473        0.0274250729
 C          3.1887508484        1.0882774009       -0.4027790336
 H          1.4034567620        1.0125013225        2.3608270256
 H         -1.3512404430        1.0611125267        2.3720013726
 C         -4.3800493846       -1.3106141243       -0.1440153817
 C         -2.2973934891       -2.3103031240        0.8569652717
 C         -4.4326470334        0.9642428863       -0.9140559743
 C          4.2768703778       -1.4843763142       -0.3640639743
 C          5.0434733627       -0.4055962690       -0.7664836496
 C          4.5043923729        0.8684180502       -0.7870773193
 C         -5.0626752974       -0.2514016877       -0.7151204897
 H         -4.9739439730        1.7843683353       -1.3594765842
 C          2.5911645635        2.4610264500       -0.4258523811
 C          2.1181761852       -2.4731578626        0.4614250104
 H          4.7061700526       -2.4740866781       -0.3497991022
 H          6.0688128381       -0.5585198362       -1.0660701921
 H          5.1092826927        1.7034086651       -1.1048636362
 H         -6.0947103731       -0.3736190224       -1.0057268998
 H         -4.8811768641       -2.2536100182        0.0096325779
 C         -2.4048898170        2.4494708310       -0.7574536684
 H         -1.8337473968       -2.0086426580        1.7947006489
 H         -1.5151686206       -2.6623621836        0.1855057448
 H         -2.9675333997       -3.1411624897        1.0579984065
 H         -1.5664662935        2.3285801124       -1.4423009913
 H         -2.0242042270        2.8464788653        0.1821102374
 H         -3.0879738027        3.1780072771       -1.1837444198
 H          2.7490746293       -3.3358918879        0.6552059469
 H          1.4120950920       -2.7471131857       -0.3215790784
 H          1.5594372545       -2.2451602685        1.3667332518
 H          3.2775045735        3.1600857006       -0.8953234535
 H          2.3897119598        2.8135546485        0.5849857227
 H          1.6556154792        2.4713410782       -0.9830066470
          42
        -56.95898101
 N         -1.0824350988       -0.0063991918        0.4783038571
 C          0.0002757027        0.0003946375       -0.2929741088
 N          1.0826232455       -0.0009017556        0.4790569269
 H          0.0012992994        0.0057518691       -1.3656515909
 C          0.6802884306       -0.0088840893        1.7818375189
 C         -0.6808092474       -0.0120838563        1.7814101931
 C         -2.4381036720       -0.0074096399        0.0307413375
 C          2.4382570041        0.0064248456        0.0315125235
 C         -3.0606460327       -1.2309229291       -0.2160293341
 C         -3.0907477501        1.2152820169       -0.1272041297
 C          3.0954601685       -1.2132625102       -0.1305737940
 C          3.0559951450        1.2330745551       -0.2118206664
 H          1.3771153583       -0.0098009385        2.5945817404
 H         -1.3786028733       -0.0192469536        2.5933021259
 C         -4.3836740484       -1.2090777561       -0.6360582208
 C         -2.3176905669       -2.5185681197       -0.0369726817
 C         -4.4131141498        1.1915236090       -0.5488641222
 C          4.4171798694       -1.1831855739       -0.5539404327
 C          5.0520198830        0.0208240985       -0.8022677121
 C          4.3786217923        1.2175506653       -0.6333513524
 C         -5.0528648287       -0.0093170836       -0.7999965282
 H         -4.9440566052        2.1216342762       -0.6792911952
 C          2.3087782086        2.5173738198       -0.0264976707
 C          2.3890943672       -2.5053429438        0.1403322977
 H          4.9512357993       -2.1109268167       -0.6884381538
 H          6.0803590727        0.0265194313       -1.1293041212
 H          4.8830485074        2.1511565805       -0.8281590071
 H         -6.0818201748       -0.0100734046       -1.1251753562
 H         -4.8916869619       -2.1401256507       -0.8337760319
 C         -2.3787536507        2.5039434230        0.1452630791
 H         -2.9861074211       -3.3616258171       -0.1847794617
 H         -1.8912347733       -2.5895603746        0.9621734630
 H         -1.5079823211       -2.5980911602       -0.7613316486
 H         -1.9984623573        2.5323757311        1.1650597263
 H         -3.0548018390        3.3428570768        0.0093393989
 H         -1.5384585863        2.6310651781       -0.5359804024
 H          1.5401924041       -2.6289977035       -0.5307194765
 H          2.0221407920       -2.5420919563        1.1647899364
 H          3.0649329299       -3.3419085191       -0.0102705381
 H          1.8870133896        2.5843183653        0.9749702786
 H          1.4952433119        2.5954579288       -0.7466487435
 H          2.9731828623        3.3634206544       -0.1755170679
