  42
 
 N         -1.6954900000       -0.5343600000        1.0576300000
 C         -0.7637100000       -1.3471400000        0.3080800000
 N          0.5012800000       -0.6307800000        0.3433900000
 H         -1.1180900000       -1.4302100000       -0.7422200000
 C          0.2863700000        0.5432200000        1.1117900000
 C         -1.0099700000        0.5944500000        1.5337900000
 C         -3.0809600000       -0.8396000000        1.2818400000
 C          1.7232800000       -1.0759400000       -0.3099600000
 C         -3.4948300000       -2.1673900000        1.6264900000
 C         -4.0892100000        0.1720800000        1.1626900000
 C          1.9229100000       -2.4712900000       -0.6206400000
 C          2.7706700000       -0.1627500000       -0.6984700000
 H          0.9942400000        1.2932800000        1.3913100000
 H         -1.4306700000        1.3700800000        2.1606800000
 C         -4.8549700000       -2.4418700000        1.8369600000
 C         -2.5613700000       -3.3342200000        1.8470800000
 C         -5.4341200000       -0.1518400000        1.3990900000
 C          3.0970200000       -2.8918700000       -1.2673600000
 C          4.0762400000       -1.9892700000       -1.6346400000
 C          3.9153400000       -0.6446500000       -1.3589500000
 C         -5.8122300000       -1.4443400000        1.7297300000
 H         -6.2047500000        0.6047900000        1.3062000000
 C          2.7347900000        1.3293600000       -0.4840800000
 C          0.9466300000       -3.5693700000       -0.2629100000
 H          3.2620000000       -3.9375200000       -1.4984600000
 H          4.9701100000       -2.3355100000       -2.1380600000
 H          4.7071600000        0.0284600000       -1.6657700000
 H         -6.8558100000       -1.6754200000        1.9014700000
 H         -5.1772500000       -3.4414300000        2.1053000000
 C         -3.8376600000        1.5968600000        0.7278900000
 H         -1.4904000000       -3.0942500000        1.7983700000
 H         -2.7827000000       -4.1362800000        1.1115800000
 H         -2.7224300000       -3.7368600000        2.8698600000
 H         -2.8070600000        1.8142100000        0.4092300000
 H         -4.1241600000        2.2956300000        1.5420300000
 H         -4.4632800000        1.8165400000       -0.1635300000
 H          1.3276300000       -4.5784400000       -0.5296300000
 H         -0.0022000000       -3.4575900000       -0.8216500000
 H          0.7675500000       -3.5698100000        0.8323700000
 H          3.5843100000        1.8473400000       -0.9788900000
 H          2.8640900000        1.5653600000        0.5875400000
 H          1.8041700000        1.7589500000       -0.9105500000
