  21
 
 N         -2.2950600000       -0.1357700000        1.0912300000
 C         -1.0662700000       -0.9178600000        0.8545600000
 N         -0.3253200000       -0.4252000000       -0.3229900000
 H         -1.3157300000       -1.9981900000        0.7518700000
 C         -3.3070000000       -0.3764600000        0.0493400000
 C          0.8631100000       -1.2612300000       -0.5398100000
 H         -3.6027600000       -1.4471900000        0.0539300000
 H         -2.9298900000       -0.1242200000       -0.9639900000
 H         -4.2211600000        0.2195200000        0.2575700000
 H          1.5351200000       -1.2464700000        0.3477700000
 H          1.4275600000       -0.9026700000       -1.4275200000
 H          0.5603400000       -2.3104900000       -0.7456200000
 C         -1.9749100000        1.2936300000        1.2694100000
 C          0.0793900000        0.9747300000       -0.1020300000
 C         -1.1610000000        1.8444000000        0.0923100000
 H         -1.3762400000        1.4067300000        2.2006500000
 H         -2.9030700000        1.8901900000        1.4068000000
 H         -0.8675400000        2.8977400000        0.2895900000
 H         -1.7706000000        1.8285000000       -0.8354100000
 H          0.6423000000        1.3572100000       -0.9819600000
 H          0.7353100000        1.0555100000        0.7961900000
