  29
 
 N         -1.0742379557        0.5767913261       -0.0000708389
 C          0.0000001489       -0.2630301644        0.0002696055
 N          1.0742378012        0.5767919081       -0.0000288239
 C          0.6740244566        1.8977327497       -0.0006324070
 C         -0.6740253227        1.8977323501       -0.0005733722
 C         -2.3945647571        0.1130387349        0.0000620056
 C          2.3945648459        0.1130400119        0.0001194161
 C         -2.6262967024       -1.2617978997       -0.0001753354
 C         -3.4805433168        0.9830338244        0.0004448890
 C          3.4805429624        0.9830356615        0.0004682916
 C          2.6262975078       -1.2617964998       -0.0001662228
 H          1.3478652836        2.7281236383       -0.0010462549
 H         -1.3478666188        2.7281228422       -0.0009622608
 C         -4.7705938745        0.4830956250        0.0005021452
 C         -4.9962700153       -0.8814633517        0.0002171140
 C         -3.9168819257       -1.7507584684       -0.0000902372
 C          4.7705937834        0.4830981217        0.0004955526
 C          4.9962706298       -0.8814607387        0.0001965152
 C          3.9168829889       -1.7507564137       -0.0001176670
 H         -1.7745229677       -1.9225440708       -0.0003788595
 H         -3.3360919928        2.0521748752        0.0006855259
 H         -5.6040690652        1.1703258752        0.0007283611
 H         -6.0055898973       -1.2646024562        0.0002595461
 H         -4.0827575551       -2.8178131194       -0.0002516870
 H          3.3360910840        2.0521766316        0.0007144075
 H          4.0827591621       -2.8178109794       -0.0002779404
 H          1.7745241140       -1.9225431069       -0.0004076439
 H          5.6040686217        1.1703287899        0.0007638394
 H          6.0055907042       -1.2645993312        0.0002606834
          29
        -44.03619608
 N         -1.0713566276       -0.5525376434        0.0079246600
 C         -0.0000757758        0.2896957976        0.0019853227
 N          1.0713760646       -0.5523621615       -0.0047397454
 C          0.6745499620       -1.8737927906        0.0016329171
 C         -0.6743425949       -1.8738981948        0.0006067308
 C         -2.3925431961       -0.0936706380        0.0148148677
 C          2.3925029675       -0.0933302474       -0.0133502598
 C         -3.4457614263       -0.8996902148       -0.4045365415
 C         -2.6522812539        1.2060087832        0.4438113531
 C          3.4468188452       -0.9000738242        0.4018378656
 C          2.6511725803        1.2071694515       -0.4405570204
 H          1.3586068080       -2.6962323635       -0.0228353425
 H         -1.3583048268       -2.6964360981        0.0245792089
 C         -3.9469625215        1.6851043296        0.4577179418
 C         -4.9969112942        0.8767530494        0.0517355110
 C         -4.7402316820       -0.4124168347       -0.3803979452
 C          4.7412722593       -0.4128522667        0.3749035014
 C          4.9968896257        0.8769981065       -0.0558152579
 C          3.9458420048        1.6862062616       -0.4572339653
 H         -3.2618500215       -1.9006410398       -0.7648813735
 H         -1.8206871112        1.8185254437        0.7540031013
 H         -4.1394189421        2.6938039485        0.7918143937
 H         -6.0095471531        1.2508163761        0.0683191231
 H         -5.5518946053       -1.0458525164       -0.7072758173
 H          3.2639135168       -1.9016792831        0.7608697738
 H          4.1374666693        2.6953578991       -0.7903637102
 H          1.8187768671        1.8201817090       -0.7475399611
 H          5.5538257416       -1.0470316390        0.6981007150
 H          6.0095758311        1.2507993896       -0.0751473879
