  33
 
 N         -1.1842994322       -0.0876201125       -0.0321278290
 C         -0.2234387779       -0.9565031320        0.3719765827
 N          0.9375230646       -0.2869212001        0.1465107462
 C          0.7093999965        0.9716088724       -0.3837486995
 C         -0.6429908498        1.0986687264       -0.4875376809
 C         -2.5960814997       -0.3865775816        0.0712746253
 C          2.1961536720       -0.9469812367        0.4251270539
 C         -2.8726884704       -1.7813823411       -0.4860649796
 H         -3.1451555944        0.3523182391       -0.5231944633
 C         -3.0406240028       -0.2857675776        1.5321282220
 H          1.8959319645       -1.8600580890        0.9548872278
 C          3.1099357711       -0.1350459367        1.3430082193
 C          2.9130555542       -1.3641291615       -0.8613990978
 C          1.7563806398        1.9737345050       -0.7273421643
 C         -1.4661672542        2.2379668828       -0.9790830537
 H         -2.8385387202        0.7088443885        1.9249058980
 H         -2.4905216841       -1.0109512698        2.1261858147
 H         -4.1049095167       -0.4862168409        1.6180251329
 H         -2.5825088882       -1.8348607764       -1.5328919455
 H         -3.9297777687       -2.0164737326       -0.4010144177
 H         -2.2915404074       -2.5111750980        0.0699364043
 H          3.2591446283       -0.5008807435       -1.4239666759
 H          2.2378781733       -1.9400616830       -1.4901119177
 H          3.7731587195       -1.9809755060       -0.6162984203
 H          3.5855192832        0.6834806200        0.8110724037
 H          3.8887299964       -0.7821554446        1.7379444063
 H          2.5407125266        0.2683366248        2.1777695494
 H         -0.8256109523        3.0783218966       -1.2318298180
 H         -2.1722948617        2.5658227807       -0.2156751455
 H         -2.0304349596        1.9574722842       -1.8699251152
 H          2.5702829848        1.5245877178       -1.2919639549
 H          2.1701368731        2.4323267797        0.1716302971
 H          1.3194874856        2.7613579070       -1.3369643794
          33
        -39.60535999
 N         -1.0622099585        0.0462596788        0.0959297862
 C          0.0006039305        0.8855640337        0.0016083207
 N          1.0625000802        0.0453283317       -0.0926959074
 C          0.6777217775       -1.2826949020       -0.0535175189
 C         -0.6786443406       -1.2819638757        0.0564164770
 C         -2.4269849660        0.5219893428        0.1583482969
 C          2.4275196592        0.5200047781       -0.1573918364
 C         -2.5281314062        1.6850999073        1.1423257704
 H         -3.0584465476       -0.3016828702        0.5108936245
 C         -2.8906527645        0.9475234953       -1.2369965677
 H          3.0587892685       -0.3062771152       -0.5038277171
 C          2.8907821666        0.9548455535        1.2350610340
 C          2.5297567646        1.6760914484       -1.1496344548
 C          1.6362591001       -2.4189823369       -0.1286255342
 C         -1.6384538007       -2.4173118519        0.1306427338
 H         -3.9222763696        1.2867271860       -1.2057610515
 H         -2.8166631920        0.1153624847       -1.9344873787
 H         -2.2589835737        1.7563782090       -1.5953029144
 H         -2.2175366749        1.3681182754        2.1351582909
 H         -3.5516593412        2.0458194404        1.1913106640
 H         -1.8739774798        2.4886768476        0.8175180860
 H          1.8782679787        2.4834237711       -0.8291886156
 H          2.2164607126        1.3529437996       -2.1395322941
 H          3.5540244814        2.0339833389       -1.2032367283
 H          2.2601722589        1.7671846256        1.5871348908
 H          3.9229368816        1.2922875067        1.2018969385
 H          2.8151382875        0.1278388871        1.9384317556
 H         -2.1684199451       -2.4205804335        1.0844588996
 H         -1.1051202555       -3.3594727963        0.0350350391
 H         -2.3760059133       -2.3585334528       -0.6703240645
 H          2.3687288440       -2.3667188576        0.6775977602
 H          2.1724193160       -2.4168530606       -1.0789720970
 H          1.1007874053       -3.3608499317       -0.0427312810
