  15
 
 N         -1.0653908243       -0.1032043248        0.0000006196
 C         -0.0033651109       -0.9454893003        0.0000015175
 N          1.0627425011       -0.1032152841        0.0000016750
 C          0.6743953028        1.2124548452       -0.0000001965
 C         -0.6781868933        1.2142944589       -0.0000007383
 C         -2.4305308963       -0.5407460165        0.0000010273
 C          2.4277357028       -0.5486932135        0.0000030397
 H         -2.4371429093       -1.6289228406       -0.0000010730
 H         -2.9550147455       -0.1774429048       -0.8877116199
 H         -2.9550135684       -0.1774464434        0.8877158999
 H          2.6277878285       -1.1571670532        0.8840718434
 H          3.0965634106        0.3114434510        0.0000039718
 H          2.6277897841       -1.1571662818       -0.8840658345
 H          1.3749891164        2.0233390763       -0.0000008168
 H         -1.3795578639        2.0239313440       -0.0000016205
          15
        -20.59256244
 N         -1.0637310115       -0.1243134426        0.0000225522
 C         -0.0000023973       -0.9664759124        0.0001042758
 N          1.0637348008       -0.1242759199        0.0000810277
 C          0.6761942297        1.1930492992       -0.0000472239
 C         -0.6761759616        1.1930347288        0.0000595346
 C         -2.4289391483       -0.5612569447       -0.0000937189
 C          2.4289195073       -0.5612788504       -0.0000806500
 H         -2.4360905223       -1.6495710492       -0.0015533326
 H         -2.9536518208       -0.1965432967       -0.8872360041
 H         -2.9530242678       -0.1990727303        0.8884881362
 H          2.9533377240       -0.1983121171        0.8878907016
 H          2.9533593069       -0.1974730820       -0.8876823301
 H          2.4361245619       -1.6495389617       -0.0005677797
 H          1.3780674942        2.0025413060       -0.0001317591
 H         -1.3781302073        2.0024267041        0.0000415127
