  18
 
 N         -1.1012658033       -0.1566957477       -0.1661624630
 C         -0.0138415115       -0.8782249008       -0.0683400025
 N          1.0792409657       -0.1723646222        0.0710106338
 H         -0.0179147258       -1.9559248179       -0.1008930069
 C          0.7583121084        1.2508710881        0.0905215101
 C         -0.7695633385        1.2625043465       -0.0975824763
 C         -2.4518938925       -0.6074271072       -0.3335223856
 C          2.4260894268       -0.6425109089        0.2137361412
 H         -2.4850566772       -1.6942352068       -0.3446653135
 H         -2.8616809163       -0.2284705905       -1.2719275143
 H         -3.0730461106       -0.2401639854        0.4855460491
 H          2.8341441742       -0.3302749042        1.1769648787
 H          3.0532412169       -0.2255387489       -0.5761889204
 H          2.4520862925       -1.7276221116        0.1520809473
 H          1.2888903000        1.7664349097       -0.7136428670
 H          1.0700809319        1.6898711944        1.0420124463
 H         -1.0783327070        1.7620546254       -1.0196648071
 H         -1.2959988179        1.7309248148        0.7375960368
          18
        -21.78157077
 N         -1.0967202150       -0.1704590671        0.0001622762
 C         -0.0000472042       -0.8844465933       -0.0001691943
 N          1.0966989834       -0.1705522989       -0.0003756111
 H          0.0001232070       -1.9626595512       -0.0003370739
 C          0.7698037077        1.2514928128       -0.0004202230
 C         -0.7697564941        1.2515299730        0.0004317781
 C         -2.4544898772       -0.6308502268       -0.0000769567
 C          2.4544860243       -0.6308374662        0.0003713959
 H         -2.9764102781       -0.2605499346        0.8842118339
 H         -2.4809518406       -1.7176764758        0.0011509625
 H         -2.9755895861       -0.2625116268       -0.8856720306
 H          2.9750793837       -0.2625780456        0.8863187116
 H          2.9768486492       -0.2603378862       -0.8835640779
 H          2.4810789021       -1.7176638650       -0.0009565032
 H          1.1928094384        1.7322756399       -0.8863146009
 H          1.1938567921        1.7326383218        0.8847463773
 H         -1.1937656322        1.7328949946       -0.8846520260
 H         -1.1927381796        1.7321850307        0.8864028976
