20 
 
 C -0.1932 1.0513 1.2375 
 C 0.0775 -1.1004 0.0 
 C -0.1932 1.0513 -1.2375 
 C 0.3557 1.7352 -0.0 
 H -1.2668 1.2842 1.3688 
 H 0.3244 1.4124 -2.1408 
 H 1.4564 1.6699 -0.0 
 N -0.0051 -0.3945 1.1414 
 N -0.0051 -0.3945 -1.1414 
 H -1.2668 1.2842 -1.3688 
 H 0.0866 2.8016 -0.0 
 H 0.3244 1.4124 2.1408 
 C 0.0037 -1.0917 2.4111 
 H 0.1013 -2.1683 2.2253 
 H 0.8432 -0.757 3.0449 
 H -0.9321 -0.9097 2.9682 
 C 0.0037 -1.0917 -2.4111 
 H 0.8432 -0.757 -3.0449 
 H 0.1013 -2.1683 -2.2253 
 H -0.9321 -0.9097 -2.9682 
