19 
 
 C -0.0 0.0 0.8248 
 N -0.0034 1.1627 0.1452 
 N 0.0034 -1.1627 0.1452 
 C 0.3551 1.421 -1.2486 
 C -0.3551 -1.421 -1.2486 
 H 0.9437 2.3507 -1.2878 
 H -0.9437 -2.3507 -1.2878 
 H 0.9847 0.6182 -1.6485 
 H -0.9847 -0.6182 -1.6485 
 H -0.5218 1.553 -1.9043 
 H 0.5218 -1.553 -1.9043 
 C -0.1748 2.384 0.9158 
 C 0.1748 -2.384 0.9158 
 H -0.3902 2.1228 1.9583 
 H 0.3902 -2.1228 1.9583 
 H 0.7343 3.0106 0.8778 
 H -0.7343 -3.0106 0.8778 
 H -1.0129 2.9826 0.5196 
 H 1.0129 -2.9826 0.5196 
