19 
 
 C -0.0 0.0 0.824767 
 N -0.00341 1.162705 0.145195 
 N 0.003409 -1.162705 0.145196 
 C 0.355127 1.420995 -1.248636 
 C -0.355127 -1.420995 -1.248636 
 H 0.943695 2.350699 -1.287755 
 H -0.943696 -2.350699 -1.287754 
 H 0.984655 0.618193 -1.648508 
 H -0.984655 -0.618193 -1.648507 
 H -0.52179 1.553004 -1.904321 
 H 0.52179 -1.553004 -1.90432 
 C -0.174803 2.384021 0.915778 
 C 0.174803 -2.384021 0.915778 
 H -0.390164 2.122781 1.958252 
 H 0.390164 -2.122782 1.958253 
 H 0.734291 3.010631 0.877753 
 H -0.73429 -3.010631 0.877752 
 H -1.012889 2.982645 0.519645 
 H 1.012889 -2.982644 0.519645 
