22 
 
 C -0.0 0.6848 -0.6593 
 C -0.0 -0.6848 -0.6593 
 N -0.0 1.0801 0.6696 
 N 0.0 -1.0801 0.6696 
 C -0.0 0.0 1.4438 
 C -0.0 2.46 1.1346 
 C 0.0 -2.46 1.1346 
 H -0.8976 2.9725 0.764 
 H -0.8976 -2.9725 0.764 
 H 0.8976 -2.9725 0.764 
 H 0.8976 2.9725 0.764 
 H -0.0 2.4651 2.2306 
 H 0.0 -2.4651 2.2306 
 H -0.0 0.0 2.5339 
 C 0.0 1.6683 -1.7769 
 C -0.0 -1.6683 -1.7769 
 H 0.8912 2.3136 -1.7372 
 H 0.8911 -2.3136 -1.7372 
 H -0.8912 -2.3136 -1.7372 
 H -0.8911 2.3136 -1.7372 
 H 0.0 1.1411 -2.7393 
 H -0.0 -1.1411 -2.7393 
