22 
 
 C -0.0 0.684782 -0.659265 
 C -0.0 -0.684782 -0.659265 
 N -0.0 1.080134 0.669636 
 N 0.0 -1.080134 0.669637 
 C -0.0 0.0 1.443801 
 C -0.0 2.459968 1.134552 
 C 1e-06 -2.459968 1.134552 
 H -0.897604 2.97247 0.764011 
 H -0.897603 -2.972471 0.764012 
 H 0.897605 -2.97247 0.764012 
 H 0.897604 2.97247 0.764013 
 H -1e-06 2.465096 2.23064 
 H 0.0 -2.465097 2.23064 
 H -0.0 0.0 2.53389 
 C 0.0 1.668349 -1.776878 
 C -1e-06 -1.668349 -1.776877 
 H 0.89115 2.313551 -1.737182 
 H 0.891148 -2.313551 -1.737182 
 H -0.89115 -2.313551 -1.737181 
 H -0.891149 2.313551 -1.737182 
 H 0.0 1.141061 -2.73933 
 H -1e-06 -1.141061 -2.739329 
