15 
 
 N -0.0 1.0684 1.1124 
 N 0.0 -1.0684 1.1124 
 C -0.0 0.6785 -0.2132 
 C 0.0 -0.6785 -0.2132 
 C 0.0 -0.0 1.9551 
 Cl -0.0 1.7625 -1.5261 
 Cl -0.0 -1.7625 -1.5261 
 C -0.0 2.4526 1.5504 
 C 0.0 -2.4526 1.5504 
 H -0.0 2.4521 2.6463 
 H 0.0 -2.4521 2.6463 
 H -0.8957 2.9738 1.183 
 H -0.8957 -2.9738 1.183 
 H 0.8957 -2.9738 1.183 
 H 0.8957 2.9738 1.183 
