34 
 
 C 1e-06 0.685393 -1.312082 
 C -1e-06 -0.685394 -1.312082 
 C 3e-06 -0.0 0.788497 
 N 2e-06 1.082684 0.016686 
 N 3e-06 -1.082685 0.016686 
 H 5e-06 -0.0 1.878988 
 C 0.0 1.651535 -2.446855 
 C -6e-06 -1.651535 -2.446855 
 H -0.892273 2.295745 -2.424875 
 H -0.89228 -2.295742 -2.424874 
 H 0.892267 -2.295746 -2.424879 
 H 0.892274 2.295743 -2.424877 
 H -2e-06 1.10425 -3.397949 
 H -7e-06 -1.10425 -3.39795 
 C -1.272798 2.75088 1.304911 
 C -1.272798 -2.750881 1.304909 
 C 1.272799 -2.750879 1.304917 
 C 1.272798 2.750881 1.304914 
 C 1e-06 2.473685 0.516828 
 C 3e-06 -2.473685 0.516828 
 H -2.165788 2.535527 0.699702 
 H -2.165787 -2.535527 0.699699 
 H 2.165791 -2.535521 0.699713 
 H 2.16579 2.535527 0.699707 
 H -1.311003 2.143122 2.222918 
 H -1.311002 -2.143124 2.222917 
 H 1.310996 -2.143125 2.222926 
 H 1.311 2.143124 2.222922 
 H -1.297447 3.810527 1.597396 
 H -1.297447 -3.810528 1.597393 
 H 1.297449 -3.810527 1.597398 
 H 1.297447 3.810528 1.597397 
 H 2e-06 3.097783 -0.387027 
 H 6e-06 -3.097784 -0.387027 
