33 
 
 C 0.0 0.6811 -1.2849 
 C 0.0 -0.6811 -1.2849 
 C 0.0 0.0 0.9004 
 N 0.0 1.0617 0.0583 
 N 0.0 -1.0617 0.0583 
 C 0.0 1.6456 -2.4248 
 C -0.0 -1.6456 -2.4248 
 H -0.8896 2.2958 -2.4117 
 H -0.8896 -2.2958 -2.4117 
 H 0.8896 -2.2958 -2.4117 
 H 0.8896 2.2958 -2.4117 
 H -0.0 1.0987 -3.3776 
 H -0.0 -1.0987 -3.3776 
 C -1.2676 2.7635 1.3129 
 C -1.2676 -2.7635 1.3129 
 C 1.2676 -2.7635 1.3129 
 C 1.2676 2.7635 1.3129 
 C 0.0 2.4539 0.5253 
 C 0.0 -2.4539 0.5253 
 H -2.1645 2.5573 0.7086 
 H -2.1645 -2.5573 0.7086 
 H 2.1645 -2.5573 0.7086 
 H 2.1645 2.5573 0.7086 
 H -1.3146 2.1468 2.2236 
 H -1.3146 -2.1468 2.2236 
 H 1.3146 -2.1468 2.2236 
 H 1.3146 2.1468 2.2236 
 H -1.2841 3.8241 1.607 
 H -1.2841 -3.8241 1.607 
 H 1.2841 -3.8241 1.607 
 H 1.2841 3.8241 1.607 
 H -0.0 3.0776 -0.3809 
 H 0.0 -3.0776 -0.3809 
