33 
 
 C 1e-06 0.681063 -1.284902 
 C 1e-06 -0.681063 -1.284901 
 C 5e-06 0.0 0.900385 
 N 3e-06 1.061709 0.058293 
 N 3e-06 -1.061708 0.058294 
 C 0.0 1.645632 -2.424841 
 C -1e-06 -1.645633 -2.42484 
 H -0.889595 2.295772 -2.411706 
 H -0.889598 -2.295772 -2.411704 
 H 0.889594 -2.295773 -2.411707 
 H 0.889597 2.295771 -2.411708 
 H -1e-06 1.09869 -3.377552 
 H -2e-06 -1.098691 -3.377552 
 C -1.267586 2.763518 1.312888 
 C -1.267587 -2.763519 1.312885 
 C 1.267586 -2.763522 1.312888 
 C 1.267586 2.763524 1.312886 
 C 0.0 2.453876 0.52529 
 C 1e-06 -2.453875 0.52529 
 H -2.164507 2.557273 0.708596 
 H -2.164507 -2.557274 0.708592 
 H 2.164508 -2.557278 0.708598 
 H 2.164508 2.557282 0.708595 
 H -1.314557 2.146766 2.223588 
 H -1.31456 -2.146768 2.223587 
 H 1.314558 -2.146773 2.22359 
 H 1.31456 2.146773 2.223588 
 H -1.284089 3.824111 1.606975 
 H -1.28409 -3.824112 1.606972 
 H 1.284086 -3.824116 1.606974 
 H 1.284085 3.824117 1.606973 
 H -1e-06 3.077561 -0.380947 
 H 1e-06 -3.07756 -0.380947 
