29 
 
 C -0.0023 0.675 -1.837 
 C 0.0023 -0.675 -1.837 
 H -0.0176 1.3795 -2.6656 
 H 0.0176 -1.3795 -2.6656 
 C -0.0111 2.4203 -0.0584 
 C -0.5981 2.7505 1.1659 
 C 0.5698 3.4162 -0.8466 
 C -0.5948 4.0737 1.6 
 H -1.0517 1.9613 1.7685 
 C 0.5574 4.7405 -0.4087 
 H 1.047 3.1621 -1.7964 
 C -0.021 5.075 0.8147 
 H -1.0551 4.3248 2.5599 
 H 1.0152 5.5147 -1.0307 
 H -0.0257 6.1137 1.156 
 C 0.0111 -2.4203 -0.0584 
 C 0.5981 -2.7505 1.1659 
 C -0.5698 -3.4162 -0.8466 
 C 0.5948 -4.0737 1.6 
 H 1.0517 -1.9613 1.7685 
 C -0.5575 -4.7405 -0.4087 
 H -1.047 -3.1621 -1.7964 
 C 0.021 -5.075 0.8147 
 H 1.0551 -4.3248 2.5599 
 H -1.0152 -5.5147 -1.0307 
 H 0.0257 -6.1137 1.156 
 C -0.0 0.0 0.3513 
 N -0.0065 1.0631 -0.4988 
 N 0.0065 -1.0631 -0.4988 
