17 
 
 C -0.008862 0.765292 -1.217162 
 C 0.008859 -0.765292 -1.217162 
 N -0.13269 1.065254 0.211096 
 N 0.132685 -1.065254 0.211096 
 C -1e-06 0.0 1.018796 
 H -0.851715 1.189715 -1.786046 
 H 0.851713 -1.189715 -1.786044 
 C -0.21382 2.433364 0.652684 
 C 0.213822 -2.433364 0.652684 
 H -1.087216 2.939553 0.207562 
 H 1.087224 -2.939546 0.207566 
 H -0.313224 2.449804 1.745711 
 H 0.313221 -2.449804 1.745711 
 H 0.688834 3.003999 0.369956 
 H -0.688827 -3.004006 0.369951 
 H 0.92263 1.200517 -1.621472 
 H -0.922633 -1.200517 -1.621473 
