  34
 
 C         -2.4967827989        0.2290600826        0.0000000374
 C          2.4967826938        0.2290602895       -0.0000001042
 N         -1.0893123802       -0.2053879359       -0.0000002483
 N          1.0893122957       -0.2053878417       -0.0000006895
 C         -0.6795226580       -1.5049095339        0.0000011559
 C          0.6795227066       -1.5049094862        0.0000009448
 C         -0.0000000668        0.5576263981       -0.0000013586
 H         -1.3549005597       -2.3343283244        0.0000022002
 H          1.3549006616       -2.3343282272        0.0000019056
 H         -0.0000000847        1.6269136325       -0.0000026198
 C         -3.1592754621       -0.3276143450       -1.2617195562
 C          3.1592770513       -0.3276176622       -1.2617172316
 C          3.1592722349       -0.3276080916        1.2617238065
 C         -3.1592739798       -0.3276119145        1.2617214902
 H         -3.1508764841       -1.4138632456       -1.2731068884
 H          3.1508791981       -1.4138665976       -1.2731011058
 H          3.1508743920       -1.4138569649        1.2731155414
 H         -3.1508756923       -1.4138608036        1.2731105284
 H         -4.1938107809       -0.0003839811       -1.3011308747
 H          4.1938121054       -0.0003864640       -1.3011285837
 H          4.1938070557       -0.0003763853        1.3011369350
 H         -4.1938090284       -0.0003808289        1.3011338265
 H         -2.6539571001        0.0344872655       -2.1543368473
 H          2.6539592501        0.0344806010       -2.1543361945
 H          2.6539507483        0.0344965918        2.1543380800
 H         -2.6539540801        0.0344907788        2.1543374747
 C         -2.5709165099        1.7530957632       -0.0000013870
 C          2.5709162465        1.7530959878       -0.0000059232
 H         -3.6147726930        2.0531778603       -0.0000011467
 H          3.6147723934        2.0531782047       -0.0000068369
 H         -2.1079974670        2.1742193582        0.8894300720
 H          2.1079974257        2.1742221436        0.8894244325
 H          2.1079977996        2.1742151788       -0.8894397791
 H         -2.1079983743        2.1742176445       -0.8894341318
          34
        -39.77889049
 C         -2.4978111329       -0.2237996940       -0.0001779263
 C          2.4978350464       -0.2238208551       -0.0001884448
 N         -1.0893071582        0.2096871574        0.0020762617
 N          1.0893247886        0.2096549470        0.0021012711
 C         -0.6794151431        1.5092940969        0.0007188989
 C          0.6794835466        1.5092730992        0.0007789842
 C         -0.0000014177       -0.5532269563        0.0029718936
 H         -1.3552879961        2.3381317762       -0.0001076668
 H          1.3554176577        2.3380554057        0.0000209058
 H          0.0000032310       -1.6224650174        0.0045936953
 C         -3.1636731824        0.3388871590        1.2568396667
 C          2.5731597974       -1.7475695817        0.0055402082
 C          3.1635208900        0.3384906566        1.2570909581
 C         -3.1551041649        0.3283203436       -1.2664240339
 H         -3.1617686507        1.4251506009        1.2600077269
 H          2.1133325515       -2.1656056430        0.8979298998
 H          2.6553772676       -0.0125165205        2.1524180933
 H         -3.1481992920        1.4144966771       -1.2810644181
 H         -4.1963118797        0.0061064325        1.2983685974
 H          3.6172570953       -2.0467400522        0.0035736003
 H          4.1955493356        0.0040018167        1.2997605767
 H         -4.1889501615       -0.0004177993       -1.3096179862
 H         -2.6569054281       -0.0135374557        2.1524140664
 H          2.1082115875       -2.1726724017       -0.8808260512
 H          3.1634511164        1.4247443734        1.2595743534
 H         -2.6453645814       -0.0357122173       -2.1556534765
 C         -2.5731511526       -1.7475477195        0.0060175379
 C          3.1551638976        0.3287474268       -1.2662141013
 H         -3.6172617995       -2.0466524622        0.0041446075
 H          4.1882117380       -0.0022945779       -1.3109789577
 H         -2.1082311052       -2.1729794203       -0.8802086238
 H          3.1507583841        1.4149437325       -1.2791284299
 H          2.6437216450       -0.0327188331       -2.1555026812
 H         -2.1133389552       -2.1653409247        0.8985303739
