21 
 
 C -0.067683 1.112356 1.248474 
 C -0.068945 -0.959562 0.0 
 C -0.067683 1.112356 -1.248474 
 C 0.561895 1.706088 -0.0 
 H -1.105754 1.460156 1.383121 
 H -0.07168 -2.054425 -0.0 
 H 0.50111 1.3925 -2.146431 
 H 1.644471 1.501677 -0.0 
 N -0.068599 -0.349025 1.164092 
 N -0.068601 -0.349025 -1.164092 
 H -1.105754 1.460157 -1.383122 
 H 0.428817 2.796426 0.0 
 H 0.50111 1.392501 2.146431 
 C -0.109217 -1.099342 2.410388 
 H -0.144312 -2.175028 2.196723 
 H 0.785775 -0.875494 3.009112 
 H -1.004184 -0.81603 2.983849 
 C -0.109217 -1.099342 -2.410387 
 H 0.785776 -0.875495 -3.00911 
 H -0.144315 -2.175028 -2.196723 
 H -1.004183 -0.816028 -2.98385 
