20 
 
 C -0.193162 1.05126 1.237464 
 C 0.077463 -1.100366 0.0 
 C -0.193163 1.05126 -1.237464 
 C 0.355695 1.735233 -0.0 
 H -1.266782 1.284192 1.368805 
 H 0.324359 1.412433 -2.140797 
 H 1.456429 1.669939 -1e-06 
 N -0.005065 -0.394546 1.141387 
 N -0.005065 -0.394546 -1.141387 
 H -1.266783 1.284191 -1.368804 
 H 0.086611 2.801555 -0.0 
 H 0.324361 1.412433 2.140796 
 C 0.003705 -1.091711 2.411059 
 H 0.101295 -2.168274 2.225278 
 H 0.843206 -0.756992 3.044936 
 H -0.932145 -0.909733 2.968241 
 C 0.003705 -1.091711 -2.411059 
 H 0.843208 -0.756994 -3.044935 
 H 0.101293 -2.168274 -2.225278 
 H -0.932143 -0.90973 -2.968243 
