21 
 
 C -0.0 0.6809 -0.6233 
 C -0.0 -0.6809 -0.6233 
 N -0.0 1.0598 0.7177 
 N -0.0 -1.0598 0.7177 
 C -0.0 0.0 1.5671 
 C 0.0 2.4411 1.1539 
 C 0.0 -2.4411 1.1539 
 H -0.8935 2.9697 0.7878 
 H -0.8935 -2.9697 0.7878 
 H 0.8935 -2.9697 0.7878 
 H 0.8935 2.9697 0.7878 
 H -0.0 2.4538 2.2504 
 H -0.0 -2.4538 2.2504 
 C -0.0 1.6647 -1.7446 
 C -0.0 -1.6647 -1.7446 
 H 0.8887 2.3155 -1.7126 
 H 0.8887 -2.3155 -1.7126 
 H -0.8887 -2.3155 -1.7126 
 H -0.8887 2.3155 -1.7126 
 H 0.0 1.1398 -2.71 
 H -0.0 -1.1398 -2.71 
