21 
 
 C -1e-06 0.680876 -0.623257 
 C -1e-06 -0.680876 -0.623257 
 N -0.0 1.059845 0.717654 
 N -0.0 -1.059844 0.717654 
 C -0.0 0.0 1.567101 
 C 0.0 2.441119 1.153866 
 C 0.0 -2.441119 1.153866 
 H -0.893547 2.969664 0.787753 
 H -0.893547 -2.969664 0.787752 
 H 0.893548 -2.969662 0.787753 
 H 0.893548 2.969663 0.787754 
 H -0.0 2.453752 2.250396 
 H -0.0 -2.453753 2.250395 
 C -0.0 1.664688 -1.744642 
 C -0.0 -1.664688 -1.744641 
 H 0.888738 2.315484 -1.712644 
 H 0.888737 -2.315484 -1.712643 
 H -0.888737 -2.315485 -1.712643 
 H -0.888737 2.315485 -1.712645 
 H 0.0 1.139847 -2.709956 
 H -0.0 -1.139847 -2.709956 
