33 
 
 C 1.579734 -0.070019 0.405687 
 C 0.817554 -1.086765 0.870978 
 N 0.731124 0.75112 -0.323675 
 N -0.471048 -0.849375 0.41345 
 C -0.546956 0.286558 -0.330585 
 H 2.641884 0.127496 0.538973 
 H 1.091088 -1.944234 1.483192 
 C 1.204689 1.993548 -0.980575 
 C -1.601417 -1.758356 0.721089 
 C 0.062591 2.652647 -1.748645 
 C -1.303282 -3.13304 0.112904 
 C -1.74473 -1.864182 2.243333 
 C 2.330322 1.634721 -1.956252 
 H -0.326727 1.988037 -2.533254 
 H -0.382153 -3.568621 0.530113 
 H -0.844692 -2.295397 2.707798 
 H 1.969749 0.918871 -2.711611 
 H -0.770246 2.916001 -1.082165 
 H -1.185935 -3.052559 -0.9792 
 H -1.921927 -0.870205 2.683255 
 H 3.19322 1.188437 -1.438789 
 H 0.442918 3.571188 -2.220784 
 H -2.131533 -3.826539 0.324117 
 H -2.597092 -2.513021 2.495572 
 H 2.680725 2.540414 -2.473999 
 C 1.716031 2.952 0.10067 
 C -2.895259 -1.208577 0.127855 
 H 2.069278 3.887784 -0.358698 
 H -3.715203 -1.900998 0.372066 
 H 0.910053 3.194888 0.810895 
 H -2.825668 -1.113946 -0.964816 
 H -3.134967 -0.217834 0.539449 
 H 2.554895 2.513766 0.663194 
