34 
 
 C 0.0 0.6854 -1.3121 
 C -0.0 -0.6854 -1.3121 
 C 0.0 -0.0 0.7885 
 N 0.0 1.0827 0.0167 
 N 0.0 -1.0827 0.0167 
 H 0.0 -0.0 1.879 
 C 0.0 1.6515 -2.4469 
 C -0.0 -1.6515 -2.4469 
 H -0.8923 2.2957 -2.4249 
 H -0.8923 -2.2957 -2.4249 
 H 0.8923 -2.2957 -2.4249 
 H 0.8923 2.2957 -2.4249 
 H -0.0 1.1042 -3.3979 
 H -0.0 -1.1042 -3.398 
 C -1.2728 2.7509 1.3049 
 C -1.2728 -2.7509 1.3049 
 C 1.2728 -2.7509 1.3049 
 C 1.2728 2.7509 1.3049 
 C 0.0 2.4737 0.5168 
 C 0.0 -2.4737 0.5168 
 H -2.1658 2.5355 0.6997 
 H -2.1658 -2.5355 0.6997 
 H 2.1658 -2.5355 0.6997 
 H 2.1658 2.5355 0.6997 
 H -1.311 2.1431 2.2229 
 H -1.311 -2.1431 2.2229 
 H 1.311 -2.1431 2.2229 
 H 1.311 2.1431 2.2229 
 H -1.2974 3.8105 1.5974 
 H -1.2974 -3.8105 1.5974 
 H 1.2974 -3.8105 1.5974 
 H 1.2974 3.8105 1.5974 
 H 0.0 3.0978 -0.387 
 H 0.0 -3.0978 -0.387 
