42 
 
 C 0.0014 0.6764 -1.8376 
 C 0.0123 -0.6829 -1.8412 
 C 0.0164 -0.0089 0.2603 
 H -0.0099 1.3981 -2.6521 
 H 0.0135 -1.4003 -2.6596 
 H 0.0237 -0.0118 1.3513 
 N 0.0042 1.0744 -0.5134 
 N 0.0219 -1.0879 -0.5192 
 C -0.0016 2.435 -0.0329 
 C -1.2396 3.0451 0.2083 
 C 1.2318 3.0696 0.1655 
 C -1.2187 4.3621 0.6762 
 C 1.2012 4.386 0.6345 
 C -0.0112 5.0243 0.8869 
 H -2.1666 4.8706 0.8738 
 H 2.1454 4.9126 0.8004 
 H -0.0151 6.055 1.2523 
 C 0.0333 -2.451 -0.0467 
 C -1.1941 -3.0569 0.2516 
 C 1.2722 -3.0918 0.0879 
 C -1.1563 -4.3777 0.7084 
 C 1.2588 -4.4113 0.5482 
 C 0.0569 -5.0464 0.8547 
 H -2.0956 -4.8837 0.9491 
 H 2.2076 -4.9426 0.6654 
 H 0.0662 -6.0798 1.2125 
 C 2.5311 2.3615 -0.1138 
 H 2.6327 1.4516 0.4992 
 H 2.6002 2.0531 -1.1692 
 H 3.3827 3.0184 0.1071 
 C 2.5591 -2.386 -0.2481 
 H 2.6018 -2.1201 -1.3164 
 H 2.6667 -1.4515 0.3255 
 H 3.4208 -3.0278 -0.0217 
 C -2.5341 2.3122 -0.0254 
 H -2.6205 1.9747 -1.0704 
 H -2.611 1.418 0.6141 
 H -3.3903 2.963 0.1959 
 C -2.4951 -2.3142 0.0984 
 H -2.5779 -1.5 0.8371 
 H -2.5877 -1.8598 -0.9005 
 H -3.345 -2.9929 0.2487 
