  22
 
 N         -1.0570421071       -0.6567031927       -0.0000094740
 C          0.0469355954       -1.3953637887       -0.0000120803
 N          1.1148411299       -0.5970500063       -0.0000133387
 C          0.6816477775        0.7035832477       -0.0000083951
 C         -0.6929571262        0.6622428768       -0.0000070918
 C         -2.4089990384       -1.1439395271       -0.0000107847
 C          2.4685682977       -1.0928703603       -0.0000198097
 H         -2.4057338671       -2.2310086581        0.0000071189
 H         -2.9354300478       -0.7853996900       -0.8850644005
 H         -2.9354417333       -0.7853704524        0.8850237347
 H          2.6404062781       -1.7026155282        0.8870038416
 H          3.1755884953       -0.2688870842       -0.0000537615
 H          2.6403785330       -1.7026635546       -0.8870155965
 C          1.5490436842        1.9076769665       -0.0000029396
 C         -1.6837887693        1.7621969226       -0.0000058964
 H         -1.1767751468        2.7212267164       -0.0000074924
 H         -2.3215777146        1.7048225174        0.8808893589
 H         -2.3215801995        1.7048209321       -0.8808992314
 H          2.6029768913        1.6531976397        0.0000149301
 H          1.3447542336        2.5145124428        0.8804201860
 H          1.3447806587        2.5145032525       -0.8804385901
 H          0.0808594933       -2.4666379259       -0.0000140230
          22
        -27.18716317
 N         -1.0836589568       -0.6461859936        0.0001768474
 C          0.0000071818       -1.4168675440        0.0001551369
 N          1.0836604045       -0.6461929760        0.0001580958
 C          0.6863357018        0.6667047074        0.0001106760
 C         -0.6863341184        0.6667127444        0.0001193098
 C         -2.4482474017       -1.0971913873       -0.0001319584
 C          2.4482526815       -1.0971775852       -0.0003100111
 H         -2.9644793986       -0.7267140532       -0.8862702889
 H         -2.9656979246       -0.7241969974        0.8842110399
 H         -2.4733537543       -2.1840355734        0.0013697252
 H          2.9636026549       -0.7291379792       -0.8880345762
 H          2.4733641553       -2.1840446015        0.0041754740
 H          2.9665597084       -0.7217071950        0.8825035957
 C          1.6605748756        1.7814846104        0.0000748117
 C         -1.6605821499        1.7814908825       -0.0001992001
 H         -2.2981177059        1.7335134659       -0.8818085885
 H         -1.1429772605        2.7349166403        0.0001041261
 H         -2.2989471694        1.7334315185        0.8807942913
 H          2.2984306856        1.7335910556        0.8814558650
 H          1.1429591641        2.7349032895       -0.0000794961
 H          2.2986322762        1.7333300909       -0.8811392540
 H         -0.0000762345       -2.4887949367        0.0002231630
