  34
 
 C          0.6868642315        1.2987734508       -0.0000016682
 C         -0.6868640633        1.2987734433       -0.0000016329
 C          0.0000001066       -0.7798693592       -0.0000011271
 N          1.0865254231       -0.0142235673       -0.0000013213
 N         -1.0865252260       -0.0142235865       -0.0000014986
 H          0.0000000737       -1.8500065475       -0.0000007904
 C          1.6383841006        2.4359592110       -0.0000021042
 C         -1.6383839814        2.4359591578       -0.0000018874
 H          2.2747000555        2.4118652647        0.8837381239
 H         -2.2747000225        2.4118648994        0.8837382723
 H         -2.2746998476        2.4118647326       -0.8837421777
 H          2.2747000512        2.4118645347       -0.8837423253
 H          1.0957010484        3.3756240036       -0.0000025432
 H         -1.0957009859        3.3756239836       -0.0000019345
 C          2.7150674437       -1.3253495191        1.2656970249
 C         -2.7150685855       -1.3253478235        1.2656970511
 C         -2.7150662943       -1.3253599178       -1.2656910614
 C          2.7150678828       -1.3253581265       -1.2656910859
 C          2.4587405309       -0.5124763381        0.0000001411
 C         -2.4587403198       -0.5124763769       -0.0000006815
 H          2.4796064406       -0.7438130869        2.1539166555
 H         -2.4796087452       -0.7438101050        2.1539161409
 H         -2.4796024094       -0.7438315426       -2.1539151991
 H          2.4796060092       -0.7438281627       -2.1539147167
 H          2.1235274970       -2.2369202052        1.2766750628
 H         -2.1235284041       -2.2369183324        1.2766770467
 H         -2.1235283648       -2.2369320022       -1.2766602003
 H          2.1235290780       -2.2369296170       -1.2766626247
 H          3.7638441104       -1.6029605153        1.3093655719
 H         -3.7638452338       -1.6029590144        1.3093647621
 H         -3.7638434550       -1.6029691097       -1.3093592523
 H          3.7638448546       -1.6029682461       -1.3093579716
 H          3.1104118581        0.3640715509       -0.0000027791
 H         -3.1104116567        0.3640715041       -0.0000055664
          34
        -39.78849083
 C          0.6836054897        1.2749952160       -0.0533203876
 C         -0.6850382061        1.2738266370        0.0574093668
 C          0.0010723162       -0.8049551731        0.0016372350
 N          1.0827681043       -0.0380199037       -0.0912743261
 N         -1.0819769536       -0.0398707428        0.0949152791
 H          0.0013747411       -1.8747646614        0.0016618066
 C          1.6326533595        2.4115315951       -0.1296721627
 C         -1.6360138196        2.4086833144        0.1343768970
 H          2.3682431300        2.3605253069        0.6714561098
 H         -2.3718350301        2.3565938191       -0.6663298187
 H         -1.1023908459        3.3491564404        0.0444779109
 H          2.1620695690        2.4130869217       -1.0820466960
 H          1.0972240867        3.3510798846       -0.0397120451
 H         -2.1650614934        2.4090442801        1.0868249701
 C          2.9246604276       -0.9151300866        1.2392437830
 C         -2.5723662927       -1.6930886206        1.1329004157
 C         -2.9268475189       -0.9016304811       -1.2409254573
 C          2.5763668044       -1.6772551868       -1.1455595871
 C          2.4587621940       -0.5196328989       -0.1602764734
 C         -2.4574880282       -0.5230508715        0.1621440117
 H          2.8268144490       -0.0839003687        1.9334650917
 H         -2.1108421228       -1.4527590584        2.0877597853
 H         -2.8369431794       -0.0602741909       -1.9237839108
 H          2.1191988214       -1.4240578044       -2.0992449089
 H          2.3441449233       -1.7536541253        1.6161568792
 H         -2.1140585851       -2.5929634197        0.7319798016
 H         -2.3424817496       -1.7310921882       -1.6319129882
 H          2.1148712965       -2.5814641224       -0.7583117132
 H          3.9689715635       -1.2097649366        1.2047005786
 H         -3.6223362685       -1.9070781111        1.3093176093
 H         -3.9691288892       -1.2033373620       -1.2063028168
 H          3.6267778531       -1.8904804277       -1.3202453634
 H          3.0630643793        0.3164843815       -0.5211283587
 H         -3.0611245668        0.3083322770        0.5349585637
