  13
 
 C         -1.6686500000       -1.3981800000        0.0278600000
 C         -0.8785700000       -0.0979400000        0.1392800000
 H         -0.9903900000       -2.2610300000        0.1942500000
 H         -2.1168500000       -1.4897600000       -0.9842800000
 H         -2.4768100000       -1.4280600000        0.7888900000
 C         -1.7810800000        1.1204000000       -0.0737700000
 H         -0.0726800000       -0.1007300000       -0.6262800000
 H         -0.4125100000       -0.0418000000        1.1471800000
 N         -0.9972300000        2.3492400000       -0.0092100000
 H         -2.5773200000        1.1423600000        0.7040200000
 H         -2.2628900000        1.0542700000       -1.0737500000
 H         -0.5717000000        2.4414600000        0.9415300000
 H         -1.6402700000        3.1614200000       -0.1525600000
