  20
 
 N         -1.1329676050       -0.3820962801        0.0902139559
 C          0.0002291922       -1.0689634153       -0.0549070880
 N          1.1331812119       -0.3823648087        0.0895482451
 C         -2.3836790650       -1.0889301298        0.0031034109
 C          2.3836156863       -1.0889227979        0.0013344057
 H         -2.9415725521       -1.0094404856        0.9425990498
 H         -2.1730768723       -2.1361763256       -0.1995382497
 H         -3.0070964877       -0.6845382702       -0.8018876706
 H          2.9421304350       -1.0081862296        0.9394706388
 H          3.0055266228       -0.6852695784       -0.8043544980
 H          2.1728797243       -2.1366527647       -0.1993971162
 C         -1.2381288119        1.0381852488        0.3880100594
 C          1.2383437334        1.0378056711        0.3879567838
 C          0.0002358002        1.7526865933       -0.1400140544
 H         -1.3332304068        1.1912411916        1.4728487750
 H         -2.1390837897        1.4370774631       -0.0903815425
 H          0.0003464876        2.8009646269        0.1620820536
 H          0.0003107845        1.7041597663       -1.2316938471
 H          2.1395494847        1.4368756526       -0.0897291457
 H          1.3329271570        1.1904021421        1.4729418383
          20
        -24.77878228
 N         -1.1329866362       -0.3676104165       -0.0141792971
 C         -0.0000038820       -1.0620417600        0.0872262530
 N          1.1329845304       -0.3675915360       -0.0140963478
 C         -2.3833758465       -1.0788422683        0.0270270389
 C          2.3833623061       -1.0788753952        0.0268562147
 H         -3.0062538986       -0.7277610541        0.8566414770
 H         -2.1723160391       -2.1370340149        0.1606983567
 H         -2.9414428565       -0.9382975479       -0.9048126102
 H          3.0068483446       -0.7271145477        0.8557156398
 H          2.9408761243       -0.9392948147       -0.9054745631
 H          2.1723060415       -2.1369062847        0.1617129146
 C         -1.2378376592        1.0687814757       -0.2208172450
 C          1.2378658338        1.0688147951       -0.2205567377
 C         -0.0000277847        1.7473938669        0.3534594753
 H         -2.1396345287        1.4367609725        0.2803365648
 H         -1.3309558992        1.2910105423       -1.2939084616
 H          0.0000655028        1.6269470672        1.4394693630
 H          0.0000425820        2.8132159454        0.1213255850
 H          1.3311883734        1.2912817011       -1.2935754595
 H          2.1395084904        1.4367714383        0.2808982186
