  20
 
 N         -2.3245800000        0.1438600000        0.2307900000
 C         -1.2292200000       -0.8166200000        0.0471000000
 N         -0.0919500000       -0.1708600000       -0.6206100000
 C         -3.4757000000       -0.5534500000        0.8120200000
 C          0.9460600000       -1.1762100000       -0.8680500000
 H         -3.2221200000       -1.0019500000        1.7990900000
 H         -3.8168500000       -1.3592800000        0.1263800000
 H         -4.3235400000        0.1530400000        0.9425400000
 H          1.3051000000       -1.6308000000        0.0830400000
 H          1.8075900000       -0.7129600000       -1.3954900000
 H          0.5475100000       -1.9806100000       -1.5238800000
 C         -1.8776000000        1.2341400000        1.1154700000
 C          0.4293300000        0.9120400000        0.2323500000
 C         -0.6756300000        1.9398800000        0.4846600000
 H         -1.5916900000        0.8353900000        2.1168800000
 H         -2.6942900000        1.9763800000        1.2535200000
 H         -0.3072900000        2.7491500000        1.1511400000
 H         -0.9844000000        2.3892500000       -0.4848700000
 H          1.2810200000        1.4207600000       -0.2705400000
 H          0.7880200000        0.5060000000        1.2070100000
