  34
 
 N         -1.0820073527        0.2373703301        0.0000090432
 C          0.0184034857       -0.5064817523       -0.0000450519
 N          1.0978907463        0.2736937780       -0.0000117713
 H          0.0408695476       -1.5759961566       -0.0000529536
 C          0.6689316758        1.5649625402       -0.0000129351
 C         -0.6914621985        1.5424096581       -0.0000061835
 C         -2.4835518339       -0.2178155441       -0.0000139595
 C          2.4879286766       -0.2216722095       -0.0000208836
 C         -2.5349961677       -1.7425192023        0.0000512369
 C         -3.1535583043        0.3290867611       -1.2617535237
 C         -3.1536694998        0.3292078906        1.2616117210
 C          2.6892698182       -1.0623750667        1.2623629734
 C          3.4548238399        0.9577712357       -0.0001810007
 C          2.6891738611       -1.0626080986       -1.2622668490
 H          1.3264653549        2.4076438136       -0.0000139776
 H         -1.3792602231        2.3613175003        0.0000033055
 H         -2.0660933547       -2.1567197072       -0.8894388505
 H         -3.5742944083       -2.0579225662        0.0000543422
 H         -2.0661131878       -2.1566327279        0.8895916776
 H         -3.1600413599        1.4154349834        1.2737847711
 H         -2.6441708620       -0.0267995910        2.1542437588
 H         -4.1837440988       -0.0119324212        1.3002284800
 H          3.3319932348        1.5716178559       -0.8890360125
 H          4.4723108067        0.5778669638       -0.0002300480
 H          3.3321286077        1.5717450623        0.8886037199
 H         -2.6439864468       -0.0270041151       -2.1543106814
 H         -3.1599248074        1.4153128835       -1.2740313501
 H         -4.1836297952       -0.0120545250       -1.3004298390
 H          3.7224032776       -1.3918795763        1.3160036197
 H          2.0564923926       -1.9457612223        1.2634674448
 H          2.4744973102       -0.4762455904        2.1530413862
 H          2.4742672051       -0.4766706280       -2.1530395029
 H          2.0564564491       -1.9460365496       -1.2631295835
 H          3.7223202466       -1.3920629607       -1.3159633143
          34
        -39.77889053
 N         -1.0892879831       -0.2099347872       -0.0009876046
 C          0.0000277262        0.5529503585       -0.0016603806
 N          1.0893511498       -0.2099491632       -0.0014623031
 H          0.0001106106        1.6221754200       -0.0024658777
 C          0.6794867668       -1.5095436826       -0.0004801798
 C         -0.6794290642       -1.5095374659       -0.0002937979
 C         -2.4977233126        0.2238230344        0.0000451682
 C          2.4977517828        0.2238452877        0.0001529174
 C         -3.1603956014       -0.3327817824       -1.2613671470
 C         -2.5727100301        1.7475895766        0.0009362792
 C         -3.1585874933       -0.3339420302        1.2619254686
 C          3.1640980033       -0.3421296833       -1.2551680539
 C          3.1547897054       -0.3245287514        1.2681621836
 C          2.5726372445        1.7475912480       -0.0104339329
 H          1.3553222290       -2.3384214261       -0.0000690978
 H         -1.3553233735       -2.3383578687        0.0002933942
 H         -2.6522676468        0.0251683050       -2.1539655196
 H         -4.1934004596       -0.0011801298       -1.3031868933
 H         -3.1568597867       -1.4190043145       -1.2703843387
 H         -2.6473627938        0.0208660081        2.1540025283
 H         -3.1575452444       -1.4201715369        1.2685787779
 H         -4.1907199237       -0.0000671017        1.3071579343
 H          3.1470243981       -1.4106540915        1.2862274998
 H          2.6453597995        0.0426838100        2.1562760633
 H          4.1888721848        0.0036172935        1.3102041771
 H         -2.1102477121        2.1684870579        0.8906192991
 H         -3.6167271894        2.0470313758        0.0009820573
 H         -2.1101572277        2.1695350694       -0.8881769462
 H          4.1961108258       -0.0076295954       -1.2982548606
 H          2.6563574536        0.0062154689       -2.1518120853
 H          3.1642508753       -1.4283995971       -1.2545092864
 H          2.1119699514        2.1625923233       -0.9038307572
 H          3.6166657262        2.0469753871       -0.0102393470
 H          2.1083362405        2.1755135565        0.8749283381
