  42
 
 N         -1.0828425054        0.2575968380        0.4205187834
 C         -0.0064564813       -0.1008339068       -0.2719787348
 N          1.0860865752        0.2316232774        0.4093078361
 H         -0.0175131581       -0.5709377797       -1.2356557947
 C          0.6950017271        0.8203161326        1.5743717963
 C         -0.6663386803        0.8361138988        1.5813791720
 C         -2.4424867767        0.0615722008        0.0257598431
 C          2.4344478002       -0.0058567366        0.0032528450
 C         -3.0199845945       -1.1935943846        0.2181483201
 C         -3.1401882008        1.1358372080       -0.5264412650
 C          2.9167272448       -1.3156823168        0.0154206803
 C          3.2215993665        1.0802541529       -0.3820391890
 H          1.3989073765        1.1676166634        2.3024142849
 H         -1.3553674928        1.2019519704        2.3148559098
 C         -4.3445672132       -1.3590843170       -0.1624751622
 C         -2.2351280952       -2.3194604672        0.8186881714
 C         -4.4622665457        0.9258093598       -0.8937133164
 C          4.2327438951       -1.5237864016       -0.3744353285
 C          5.0325768142       -0.4636900948       -0.7613305068
 C          4.5315436940        0.8253036180       -0.7655570964
 C         -5.0582708882       -0.3094464790       -0.7127910134
 H         -5.0251401897        1.7389395995       -1.3240082435
 C          2.6802833077        2.4766855098       -0.3848460552
 C          2.0518472046       -2.4651487188        0.4350115318
 H          4.6299949719       -2.5264587713       -0.3705041825
 H          6.0527721113       -0.6434611412       -1.0609366692
 H          5.1595697517        1.6476461290       -1.0698518140
 H         -6.0867665210       -0.4551618717       -1.0022558310
 H         -4.8170157674       -2.3185096523       -0.0228507714
 C         -2.4788284218        2.4658201551       -0.7178829765
 H         -1.7751402540       -2.0210584926        1.7602582408
 H         -1.4456958449       -2.6475078809        0.1426318622
 H         -2.8844826045       -3.1678389306        1.0111859063
 H         -1.5546744591        2.3671030371       -1.2862603960
 H         -2.2398482905        2.9236528453        0.2413339013
 H         -3.1382796972        3.1387654598       -1.2564100510
 H          2.6705201944       -3.3150487574        0.7079410724
 H          1.4067010024       -2.7787390301       -0.3860323066
 H          1.4255023284       -2.2101920267        1.2883158825
 H          3.2936791053        3.1128383179       -1.0160014277
 H          2.6959800836        2.8957200803        0.6210441532
 H          1.6560303175        2.5133711454       -0.7520737289
          42
        -56.89255136
 N         -1.0840475325       -0.0060316957        0.4859340815
 C          0.0002525839        0.0031795714       -0.2825913716
 N          1.0839355648       -0.0225553340        0.4864077882
 H          0.0011210377        0.0267965685       -1.3548182986
 C          0.6802735415       -0.0486426805        1.7871465566
 C         -0.6812710992       -0.0390243972        1.7868505081
 C         -2.4396258921        0.0207188861        0.0333610975
 C          2.4399876274       -0.0240684576        0.0341474763
 C         -3.1423080630       -1.1819987231       -0.0424854524
 C         -3.0081496774        1.2491240738       -0.3030147522
 C          3.1247814454        1.1897093626       -0.0259385085
 C          3.0263142270       -1.2395898983       -0.3177608929
 H          1.3773137092       -0.0757357497        2.5996589387
 H         -1.3788257421       -0.0470925612        2.5993096019
 C         -4.4609282461       -1.1319522463       -0.4731856629
 C         -2.4881433881       -2.4785202392        0.3239116748
 C         -4.3295846245        1.2530382778       -0.7283492611
 C          4.4438251294        1.1646544263       -0.4575333210
 C          5.0487341274       -0.0280863409       -0.8119527918
 C          4.3474618044       -1.2186623114       -0.7433741731
 C         -5.0484691794        0.0740200403       -0.8117015281
 H         -4.7951581273        2.1891773904       -0.9931277852
 C          2.2505623162       -2.5187170681       -0.2403806921
 C          2.4517739568        2.4709564847        0.3596271492
 H          4.9976152416        2.0884257800       -0.5139671387
 H          6.0748959733       -0.0298426139       -1.1434659589
 H          4.8267611373       -2.1443407536       -1.0201311468
 H         -6.0744375123        0.0951250452       -1.1431342468
 H         -5.0279437426       -2.0468271254       -0.5421394075
 C         -2.2150501370        2.5166264535       -0.2100061279
 H         -3.1668130281       -3.3061582162        0.1417723834
 H         -2.2116654701       -2.4928451297        1.3780986977
 H         -1.5851554657       -2.6419023728       -0.2646413165
 H         -1.4513739071        2.5511087703       -0.9875659222
 H         -1.7218122251        2.6064196168        0.7573346305
 H         -2.8650155610        3.3759783246       -0.3429711375
 H          3.1236459446        3.3094453618        0.2050602110
 H          2.1606549285        2.4588253782        1.4097687279
 H          1.5554597851        2.6378532098       -0.2377865646
 H          2.9064539660       -3.3662635224       -0.4135152699
 H          1.4664217984       -2.5408265600       -0.9977366704
 H          1.7842121194       -2.6405077007        0.7368179344
