  20
 
 N         -1.8918400000        0.1731800000        0.1830400000
 C         -0.6122000000       -0.5282800000        0.3595700000
 N          0.0680900000       -0.6939500000       -0.9322300000
 H         -0.7413700000       -1.4948500000        0.9036300000
 C         -3.0141400000       -0.7711700000        0.0799900000
 C          1.2072600000       -1.6110100000       -0.7832300000
 H         -3.1352600000       -1.3577400000        1.0189000000
 H         -2.8488700000       -1.4734500000       -0.7651500000
 H         -3.9586300000       -0.2207500000       -0.1191300000
 H          1.9246000000       -1.2444700000       -0.0144500000
 H          1.7410000000       -1.7223200000       -1.7519000000
 H          0.8481500000       -2.6212400000       -0.4915300000
 C         -2.0903800000        1.1025900000        1.2979200000
 H         -1.2581800000        1.8396800000        1.3248000000
 H         -2.1303200000        0.5640600000        2.2708300000
 H         -3.0325400000        1.6741300000        1.1554600000
 C          0.5500000000        0.6178000000       -1.3908900000
 H          1.0799300000        0.5183500000       -2.3625100000
 H          1.2423100000        1.0754800000       -0.6472700000
 H         -0.3033800000        1.3102000000       -1.5561500000
