  29
 
 N         -1.9233200000       -0.7218100000        0.6273300000
 C         -1.0705000000       -1.6109900000       -0.1341800000
 N          0.1221500000       -0.8315000000       -0.3945700000
 C         -0.0340100000        0.4456600000        0.1879900000
 C         -1.2560000000        0.5111900000        0.7984900000
 C         -3.2254900000       -1.0625700000        1.1147400000
 C          1.2590200000       -1.3030500000       -1.1256700000
 C         -3.7641400000       -2.3416000000        0.8636900000
 C         -3.9999900000       -0.1414000000        1.8517000000
 C          2.3880900000       -0.4839700000       -1.3397100000
 C          1.2707100000       -2.6115900000       -1.6516800000
 H          0.6830700000        1.2532400000        0.1662000000
 H         -1.6322200000        1.3773900000        1.3228900000
 C         -5.2701100000       -0.4932100000        2.3194300000
 C         -5.7868200000       -1.7634400000        2.0613800000
 C         -5.0345200000       -2.6864400000        1.3343200000
 C          3.4891700000       -0.9629300000       -2.0566100000
 C          3.4829400000       -2.2605300000       -2.5696900000
 C          2.3748600000       -3.0837600000       -2.3673500000
 H         -3.2053500000       -3.0792500000        0.3029400000
 H         -3.6384100000        0.8510300000        2.0734700000
 H         -5.8550200000        0.2218100000        2.8836900000
 H         -6.7702000000       -2.0324000000        2.4248900000
 H         -5.4358600000       -3.6716500000        1.1344400000
 H          2.4341900000        0.5253800000       -0.9603200000
 H          2.3705700000       -4.0902600000       -2.7655900000
 H          0.4266700000       -3.2740100000       -1.5116000000
 H          4.3496600000       -0.3254200000       -2.2144500000
 H          4.3368300000       -2.6280200000       -3.1240700000
