  18
 
 N         -1.7253800000       -0.5893700000        0.8524400000
 C         -0.9079300000       -1.5233400000        0.0544500000
 N          0.0400000000       -0.7323600000       -0.7396200000
 H         -1.5074100000       -2.1692500000       -0.6236900000
 C          0.0325900000        0.5731600000       -0.0900800000
 C         -1.4091200000        0.7242500000        0.3003000000
 C         -3.1616700000       -0.8872300000        0.7939900000
 C          1.3687700000       -1.3494300000       -0.7379500000
 H         -3.3534200000       -1.8934800000        1.2230000000
 H         -3.5379900000       -0.8652500000       -0.2530000000
 H         -3.7263300000       -0.1441200000        1.3967500000
 H          1.7525500000       -1.4877500000        0.2975200000
 H          2.0799100000       -0.7135200000       -1.3080700000
 H          1.3219700000       -2.3405500000       -1.2378400000
 H          0.3927900000        1.3871100000       -0.7554400000
 H          0.6455700000        0.5505500000        0.8427900000
 H         -1.9992400000        0.9089200000       -0.6288000000
 H         -1.5823300000        1.5491800000        1.0242900000
