  15
 
 N         -1.0535160202       -1.2077602846       -0.0000010354
 C          0.0239297483       -2.0289917135        0.0000032970
 N          1.0905906821       -1.1889613936       -0.0000022434
 C          0.6878726960        0.1234670745       -0.0000001197
 C         -0.6752614734        0.1111433272        0.0000005618
 C         -2.4154753803       -1.6595552723       -0.0000008005
 C          2.4574190782       -1.6357714316       -0.0000026039
 H         -2.4026147271       -2.7467597669       -0.0000030077
 H         -2.9383357572       -1.2973614156       -0.8871062980
 H         -2.9383327986       -1.2973655669        0.8871080825
 H          2.6490751070       -2.2428208719        0.8850576643
 H          3.1209168937       -0.7733590521       -0.0000007682
 H          2.6490761882       -2.2428180228       -0.8850647460
 Cl         1.7520545508        1.4611231702        0.0000006099
 Cl        -1.7836421223        1.4112161070        0.0000021840
          15
        -28.69172188
 N         -1.0710661839       -1.1743571331       -0.0000253035
 C         -0.0000234059       -2.0061003613       -0.0000440855
 N          1.0710376953       -1.1743723857       -0.0001055763
 C          0.6814038064        0.1417953350        0.0000009398
 C         -0.6814037209        0.1418046691       -0.0000981227
 C         -2.4370895566       -1.6137953551        0.0002187389
 C          2.4370358854       -1.6138650905       -0.0000532141
 H         -2.4340592134       -2.7010852247       -0.0003946897
 H         -2.9570949739       -1.2465745977       -0.8865123261
 H         -2.9565239958       -1.2475963808        0.8877274870
 H          2.4339560604       -2.7011196904        0.0003743190
 H          2.9568505601       -1.2468325442        0.8868273495
 H          2.9567294680       -1.2475972014       -0.8873316730
 Cl         1.7796302880        1.4501802107        0.0000988896
 Cl        -1.7795889095        1.4502012565       -0.0000750290
