  15
 
 N         -1.0559898750       -1.2058119355       -0.0000005178
 C          0.0239055531       -2.0241575347        0.0000045467
 N          1.0928368481       -1.1867068539       -0.0000006870
 C          0.6883328368        0.1220609593        0.0000009899
 C         -0.6757675389        0.1098566989        0.0000007830
 C         -2.4179389937       -1.6640263791       -0.0000009968
 C          2.4599889891       -1.6392463814       -0.0000030035
 H         -2.3966125391       -2.7504901035       -0.0000030832
 H         -2.9396366228       -1.3025883184       -0.8871045379
 H         -2.9396347072       -1.3025921293        0.8871051738
 H          2.6449579818       -2.2465129394        0.8851856918
 H          3.1254880545       -0.7791024720       -0.0000016267
 H          2.6449571811       -2.2465099136       -0.8851940899
 Cl         1.7442517847        1.4749684922        0.0000008992
 Cl        -1.7753822873        1.4262836978        0.0000012352
          15
        -28.69722912
 N         -1.0734301820       -1.1784219538       -0.0001017010
 C          0.0000944456       -2.0072438870        0.0000172804
 N          1.0735337349       -1.1783260016       -0.0001450442
 C          0.6818486768        0.1345182974       -0.0000560167
 C         -0.6818403786        0.1344430392        0.0001106709
 C         -2.4394346522       -1.6243869276        0.0000005291
 C          2.4395874375       -1.6243411699        0.0001070719
 H         -2.9570234943       -1.2612333515        0.8888138179
 H         -2.4278144937       -2.7109860928       -0.0031045418
 H         -2.9591964682       -1.2558801095       -0.8853520417
 H          2.9590124058       -1.2567295196       -0.8858287185
 H          2.4278372123       -2.7109642046       -0.0018996631
 H          2.9574325116       -1.2602284170        0.8884488971
 Cl         1.7711649436        1.4590261945       -0.0000135078
 Cl        -1.7712994660        1.4588614523        0.0000195276
