  27
 
 C          2.4314232241        0.0000000396       -0.5485094213
 C         -2.4314233764       -0.0000008754       -0.5485093579
 N          1.0656174734        0.0000004285       -0.0849818737
 N         -1.0656176073       -0.0000001209       -0.0849818602
 C          0.6758528013        0.0000005192        1.2316090041
 C         -0.6758529116        0.0000003009        1.2316090076
 C         -0.0000000728        0.0000000116       -0.9257427766
 C          3.1610507968        1.2626328681       -0.0873127575
 C          3.1610489562       -1.2626347772       -0.0873151921
 C         -3.1610495461       -1.2626346155       -0.0873129356
 C         -3.1610504362        1.2626330449       -0.0873148109
 H          1.3660152120        0.0000007321        2.0507614515
 H         -1.3660153018        0.0000004037        2.0507614748
 H          2.3669002003        0.0000011108       -1.6427677188
 H         -2.3669004151       -0.0000016466       -1.6427676590
 H          3.2415478782        1.2869289182        0.9974543208
 H          3.2415453345       -1.2869333362        0.9974518905
 H         -3.2415459301       -1.2869312978        0.9974541806
 H         -3.2415462195        1.2869316153        0.9974523138
 H          4.1625480566        1.2899136023       -0.5084628614
 H          4.1625464154       -1.2899159050       -0.5084647840
 H         -4.1625470342       -1.2899160749       -0.5084624530
 H         -4.1625481899        1.2899128118       -0.5084638099
 H          2.6204213763        2.1477502215       -0.4151034285
 H          2.6204185308       -2.1477506714       -0.4151081373
 H         -2.6204194790       -2.1477512850       -0.4151043847
 H         -2.6204213771        2.1477496200       -0.4151081677
          27
        -33.26171737
 C          2.4314564098       -0.0017194299       -0.5473357151
 C         -2.4314551682       -0.0018004125       -0.5473927539
 N          1.0655862381       -0.0005135274       -0.0833446860
 N         -1.0656091070       -0.0002734495       -0.0833854281
 C          0.6758238914        0.0051409626        1.2332282274
 C         -0.6758716161        0.0052863076        1.2332221954
 C         -0.0000066250       -0.0040700385       -0.9240634254
 C          3.1612719596        1.2620538605       -0.0900506832
 C          3.1613404396       -1.2630928583       -0.0835724599
 C         -3.1610679676       -1.2632126482       -0.0832237240
 C         -3.1614568771        1.2619496114       -0.0903819883
 H          1.3660409467        0.0085002238        2.0521667349
 H         -1.3661991892        0.0088462326        2.0520610457
 H          2.3660721815       -0.0045703452       -1.6415369372
 H         -2.3660419928       -0.0048510249       -1.6415834302
 H          3.2500545400        1.2853233809        0.9940558204
 H          4.1598855773       -1.2949299995       -0.5113021458
 H         -4.1591324075       -1.2960628635       -0.5119559968
 H         -3.2499061292        1.2855398219        0.9937292822
 H          4.1594642478        1.2923685305       -0.5187384032
 H          2.6167886589       -2.1489537449       -0.4025862952
 H         -2.6156964686       -2.1490596088       -0.4008129608
 H         -4.1598196445        1.2916551449       -0.5186898350
 H          2.6160585599        2.1462201010       -0.4127151440
 H          3.2492237817       -1.2812441028        1.0007031460
 H         -3.2501021807       -1.2804437694        1.0009648503
 H         -2.6167831683        2.1462188294       -0.4135316440
