  30
 
 N         -1.0888948941        0.4919087613        0.1723994874
 C          0.0000041317       -0.2147133245       -0.1351370010
 N          1.0888956117        0.4919659912        0.1722900557
 H          0.0000061826       -1.1800257755       -0.6005854518
 C          0.6801428566        1.6858937272        0.6927016794
 C         -0.6801545650        1.6858251052        0.6928390014
 C         -2.4325002503        0.0741370825        0.0049642373
 C          2.4325014717        0.0741962760        0.0048655252
 C         -2.7716506632       -1.2578519208        0.2146480764
 C         -3.4002627548        1.0026497464       -0.3603647392
 C          2.7716206520       -1.2577912608        0.2146169978
 C          3.4002935463        1.0026718640       -0.3604836398
 H          1.3667611166        2.4281175431        1.0435020899
 H         -1.3667723499        2.4279737037        1.0437900272
 C         -4.0866119143       -1.6566422728        0.0562776991
 H         -2.0220510416       -1.9699842612        0.5238681148
 C         -4.7120019112        0.5906469324       -0.5142772215
 C          4.0865789321       -1.6566188069        0.0563183050
 C          5.0563545734       -0.7353794155       -0.3065465993
 C          4.7120367345        0.5906358685       -0.5143022985
 C         -5.0563493014       -0.7353741369       -0.3066122034
 H         -5.4646598542        1.3081312129       -0.7998684598
 H          3.1289725744        2.0306816626       -0.5439557765
 H          2.0219837792       -1.9699006046        0.5237943389
 H          4.3534408480       -2.6880036058        0.2232566031
 H          6.0804512273       -1.0510253256       -0.4257571118
 H          5.4647309219        1.3080946536       -0.7998666955
 H         -6.0804401525       -1.0509995605       -0.4259192116
 H         -4.3535091957       -2.6880255798        0.2231665392
 H         -3.1289060990        2.0306572733       -0.5437843407
          30
        -44.20718046
 N         -1.0885206153       -0.4790739252       -0.1845937298
 C          0.0000448791        0.2391398034        0.0949422208
 N          1.0885782926       -0.4792535881       -0.1843808099
 H          0.0000864125        1.2223732110        0.5215476545
 C          0.6801462452       -1.6921140254       -0.6593228828
 C         -0.6802220576       -1.6920113694       -0.6594117591
 C         -2.4323406973       -0.0592812315       -0.0221897517
 C          2.4323495569       -0.0593730027       -0.0220073221
 C         -3.3872562139       -0.9711674305        0.4119328951
 C         -2.7825459166        1.2569929913       -0.3003963944
 C          2.7820427259        1.2573923038       -0.2985244487
 C          3.3878228156       -0.9715503735        0.4103111918
 H          1.3675282859       -2.4470238127       -0.9809157846
 H         -1.3676809736       -2.4467845745       -0.9811898689
 C         -4.6982787120       -0.5575946771        0.5675995690
 H         -3.1053494807       -1.9857768454        0.6470908592
 C         -4.0971093991        1.6571669309       -0.1410553047
 C          4.0965381059        1.6577994615       -0.1392121293
 C          5.0539603852        0.7533417245        0.2920037433
 C          4.6987992244       -0.5577869358        0.5657697529
 C         -5.0540093291        0.7530121926        0.2920086289
 H         -4.3736000147        2.6759481184       -0.3611187245
 H          3.1064284318       -1.9866035265        0.6442209176
 H          2.0410494572        1.9544993883       -0.6586054734
 H          4.3725087892        2.6770505175       -0.3578682195
 H          6.0773863138        1.0704129968        0.4134790893
 H          5.4418901130       -1.2618660550        0.9046818631
 H         -6.0774902616        1.0699406851        0.4134491079
 H         -5.4409602354       -1.2614564187        0.9078912016
 H         -2.0419025813        1.9537897438       -0.6618017747
