  30
 
 N         -1.7605600000       -0.4409600000        0.7816500000
 C         -0.7210300000       -1.3938000000        0.4454700000
 N          0.4216600000       -0.5742500000        0.0931200000
 H         -1.0341400000       -2.0054100000       -0.4285100000
 C          0.0598900000        0.7851900000        0.2223800000
 C         -1.2420600000        0.8647200000        0.6331700000
 C         -3.0863700000       -0.7884700000        1.1988900000
 C          1.6994100000       -1.0808000000       -0.3111100000
 C         -3.4604600000       -2.1429700000        1.3231100000
 C         -4.0471700000        0.2017200000        1.4963100000
 C          1.9245400000       -2.4719000000       -0.3759300000
 C          2.7600600000       -0.2140800000       -0.6515300000
 H          0.6938200000        1.6390400000        0.0332600000
 H         -1.7709300000        1.7895900000        0.8109400000
 C         -4.7511800000       -2.4933300000        1.7299200000
 H         -2.7575500000       -2.9365700000        1.1077400000
 C         -5.3365300000       -0.1561900000        1.9025800000
 C          3.1674800000       -2.9770200000       -0.7685500000
 C          4.2044900000       -2.1055500000       -1.1021600000
 C          4.0007700000       -0.7265200000       -1.0435300000
 C         -5.6883500000       -1.5012800000        2.0192100000
 H         -6.0647600000        0.6124700000        2.1275600000
 H          2.6460100000        0.8586100000       -0.6203600000
 H          1.1421800000       -3.1747700000       -0.1226600000
 H          3.3262700000       -4.0467900000       -0.8137000000
 H          5.1660800000       -2.4987700000       -1.4058800000
 H          4.8064400000       -0.0515600000       -1.3025500000
 H         -6.6871500000       -1.7747500000        2.3340400000
 H         -5.0245200000       -3.5367100000        1.8210900000
 H         -3.8178700000        1.2534400000        1.4191500000
