66

N	3.3679507472523937	2.302788539160309	2.508282395188944	1.0	0.0	0.0	0.01
C	4.449963384917954	1.819984661735757	1.8305914704090689	1.0	0.0	0.0	0.01
N	5.546070660342256	2.2950404228302617	2.4908564142339213	1.0	0.0	0.0	0.01
C	5.156159322183568	3.075625720775595	3.5881998133918875	1.0	0.0	0.0	0.01
C	3.7809083227231586	3.0819482508855875	3.598183661545094	1.0	0.0	0.0	0.01
C	1.9521766635882758	1.9930758281880123	2.078595171701848	1.0	0.0	0.0	0.01
C	6.952561568699379	1.97268942552562	2.0404756897399157	1.0	0.0	0.0	0.01
C	1.779293089294132	2.549214407741161	0.6552888171755054	1.0	0.0	0.0	0.01
C	0.9435498252964993	2.6578247039667864	3.022442009278565	1.0	0.0	0.0	0.01
C	1.7858212482321578	0.464967036041592	2.1301261392251982	1.0	0.0	0.0	0.01
C	7.103830080720861	2.5016291737628227	0.6040836839722441	1.0	0.0	0.0	0.01
C	7.111627415437374	0.44516762928783454	2.117381882325062	1.0	0.0	0.0	0.01
C	7.98079165109137	2.6489610434256785	2.9545311944890447	1.0	0.0	0.0	0.01
H	5.848588519136561	3.5699102555337263	4.281893420502199	1.0	0.0	0.0	0.01
H	3.103222881276853	3.5839531249889114	4.300891084915355	1.0	0.0	0.0	0.01
H	2.519575124275487	-0.028087520617151657	1.467711767981321	1.0	0.0	0.0	0.01
H	0.7822170754069093	0.16368969887090393	1.7878158097171297	1.0	0.0	0.0	0.01
H	1.9149025128030153	0.08181482585368352	3.159443615407057	1.0	0.0	0.0	0.01
H	1.9031645128739978	3.64803416858485	0.6359868881484186	1.0	0.0	0.0	0.01
H	0.7755326147665437	2.322084596734749	0.26021255784987485	1.0	0.0	0.0	0.01
H	2.5130665849301437	2.0917133093081013	-0.032018354538415894	1.0	0.0	0.0	0.01
H	7.876345948472447	2.295121979022384	3.9948529574280958	1.0	0.0	0.0	0.01
H	7.861670657369852	3.746251033168756	2.937073029436778	1.0	0.0	0.0	0.01
H	9.006024256004679	2.421456556100699	2.628879455975043	1.0	0.0	0.0	0.01
H	6.996250759805315	0.0815711049210361	3.1554683769472187	1.0	0.0	0.0	0.01
H	8.10835822013792	0.1321129140007592	1.7657513359285346	1.0	0.0	0.0	0.01
H	6.365586074216342	-0.05568255033815966	1.4750025326363323	1.0	0.0	0.0	0.01
H	1.0626627990397683	3.7551917353916635	3.016795781750528	1.0	0.0	0.0	0.01
H	1.0695981060267947	2.290432507089378	4.055703365055582	1.0	0.0	0.0	0.01
H	-0.08835742367679289	2.435052616723093	2.715125414513667	1.0	0.0	0.0	0.01
H	6.354768926406199	2.0368325343002525	-0.061684504873433334	1.0	0.0	0.0	0.01
H	8.098874350718994	2.2602309007493306	0.19560973824264488	1.0	0.0	0.0	0.01
H	6.98668272738789	3.600617557550907	0.5666052965678436	1.0	0.0	0.0	0.01
N	3.3887680870437724	2.282049625844605	2.468316201392447	0.0	0.0	1.0	0.5
C	4.449387594138639	1.8059635231340427	1.7662946206189558	0.0	0.0	1.0	0.5
N	5.524407100529288	2.2753318308066413	2.450665697052763	0.0	0.0	1.0	0.5
C	5.145641893262733	3.026722406558229	3.553034438353522	0.0	0.0	1.0	0.5
C	3.7904678853773146	3.031075514504559	3.5641483048266167	0.0	0.0	1.0	0.5
C	1.9828737225922848	1.998219829126595	2.076568237145585	0.0	0.0	1.0	0.5
C	6.9216827115663895	1.9763697868632275	2.039977076291157	0.0	0.0	1.0	0.5
C	1.7527510955448937	2.53606190403553	0.6624529935319465	0.0	0.0	1.0	0.5
C	1.0202755371749004	2.682779047020042	3.045835090821223	0.0	0.0	1.0	0.5
C	1.7586581548872395	0.48457177300588095	2.1217825938333594	0.0	0.0	1.0	0.5
C	7.1298199706706935	2.48319279918246	0.611142002639125	0.0	0.0	1.0	0.5
C	7.139177069036803	0.4627692447286518	2.1136785907155713	0.0	0.0	1.0	0.5
C	7.904655691639844	2.6770732044605805	2.976600965218779	0.0	0.0	1.0	0.5
H	5.844360396107644	3.4966018635917226	4.239703457302299	0.0	0.0	1.0	0.5
H	3.106283383401602	3.5059282152844364	4.261926036919942	0.0	0.0	1.0	0.5
H	2.441928433408503	-0.031170831122611542	1.4324441527420222	0.0	0.0	1.0	0.5
H	0.7223787376306698	0.24666485413514505	1.835836659318077	0.0	0.0	1.0	0.5
H	1.9347025802815914	0.09950755178925874	3.138737914030569	0.0	0.0	1.0	0.5
H	1.9187875340304115	3.624528057050039	0.6312525249642911	0.0	0.0	1.0	0.5
H	0.7181999302587556	2.332762964867	0.34551458318690154	0.0	0.0	1.0	0.5
H	2.441379628723622	2.0598703247766483	-0.04966655365170247	0.0	0.0	1.0	0.5
H	7.796894249249589	2.3308892840551856	4.01598750475098	0.0	0.0	1.0	0.5
H	7.782325138464072	3.7709566764245532	2.9523510357394054	0.0	0.0	1.0	0.5
H	8.929510408751657	2.445532081593816	2.6515626361908593	0.0	0.0	1.0	0.5
H	6.976317578313704	0.10035604629386818	3.141099085932444	0.0	0.0	1.0	0.5
H	8.169798620340979	0.21299483108690365	1.817513637484616	0.0	0.0	1.0	0.5
H	6.443229237278871	-0.0640598354929689	1.4454789515468005	0.0	0.0	1.0	0.5
H	1.1429529378397794	3.7768546275542967	3.0394627820760185	0.0	0.0	1.0	0.5
H	1.1497140235050556	2.317246783576623	4.076140759871184	0.0	0.0	1.0	0.5
H	-0.011450757683882706	2.4581332986935105	2.738204451414513	0.0	0.0	1.0	0.5
H	6.427042392067282	1.995979893388023	-0.07914678315828771	0.0	0.0	1.0	0.5
H	8.157885779821049	2.2678490547953505	0.28142358522455835	0.0	0.0	1.0	0.5
H	6.968632461902544	3.571611959653045	0.5598346779415266	0.0	0.0	1.0	0.5
