44

N	1.8147111746584075	1.8954363706909592	0.8871592541831193	1.0	0.0	0.0	0.01
C	2.9112657250665754	1.1047484559907887	0.8851106329848935	1.0	0.0	0.0	0.01
N	4.020018320007795	1.8523765290369072	0.8888358667695849	1.0	0.0	0.0	0.01
C	3.6823552388491088	3.0764404577270015	0.889594294751704	1.0	0.0	0.0	0.01
C	2.203188466177842	3.1195717267124343	0.8894712824443375	1.0	0.0	0.0	0.01
C	0.4568385620368494	1.3429452499906707	0.8861767790961164	1.0	0.0	0.0	0.01
C	5.4492676746387385	1.4135643328043859	0.885835488769647	1.0	0.0	0.0	0.01
H	-0.016182795518649245	1.7101476042200248	1.7920751842972054	1.0	0.0	0.0	0.01
H	0.5965960308135115	0.2714956415576184	0.887376279260215	1.0	0.0	0.0	0.01
H	-0.014262585978043054	1.708134057632905	-0.021489249828431606	1.0	0.0	0.0	0.01
H	5.57726166460332	0.851518463754816	-0.042127070709456406	1.0	0.0	0.0	0.01
H	5.592233466510721	0.8882057226700826	1.832557248137276	1.0	0.0	0.0	0.01
H	5.9453102069545	2.3780505898415396	0.8715679138374756	1.0	0.0	0.0	0.01
C	4.594641699033795	4.193977223642339	0.8886551327297871	1.0	0.0	0.0	0.01
C	1.3694396850596484	4.29871556363988	0.8885645423334717	1.0	0.0	0.0	0.01
H	1.9772418849161364	5.1834597126675135	0.8870597064050789	1.0	0.0	0.0	0.01
H	0.7272465548761913	4.307011777928749	1.7814616868192477	1.0	0.0	0.0	0.01
H	0.7245111039948202	4.304355373642017	-0.0026108120785118365	1.0	0.0	0.0	0.01
H	4.374101851458945	4.791848554847005	-0.006927692279286329	1.0	0.0	0.0	0.01
H	5.683032678575667	3.82296172828484	0.8975649716539853	1.0	0.0	0.0	0.01
H	4.356612157290933	4.816653532605577	1.7622784117389678	1.0	0.0	0.0	0.01
H	2.8988740650198572	0.018538952572663515	0.8803252794497837	1.0	0.0	0.0	0.01
N	1.8841333141676693	1.8352747912980765	0.8862893535189315	0.0	0.0	1.0	0.5
C	2.9644850803888474	1.0632230923614259	0.885625864399864	0.0	0.0	1.0	0.5
N	4.048785340850527	1.8354188614484648	0.8855239192716577	0.0	0.0	1.0	0.5
C	3.6503226281865624	3.1657029315309035	0.886424705248054	0.0	0.0	1.0	0.5
C	2.280145802421968	3.160254231452284	0.8868214496390243	0.0	0.0	1.0	0.5
C	0.5040893612553203	1.3708454889382289	0.885568752658381	0.0	0.0	1.0	0.5
C	5.408731315851682	1.3034212572084325	0.8873675480368957	0.0	0.0	1.0	0.5
H	-0.007933727526621581	1.7437298279356583	1.7823972091770448	0.0	0.0	1.0	0.5
H	0.49850939842541075	0.2748364133156267	0.8869386405018473	0.0	0.0	1.0	0.5
H	-0.006382665265199261	1.7415539590837308	-0.013062679048419845	0.0	0.0	1.0	0.5
H	5.556205447442377	0.6693887874914974	0.004179762047294533	0.0	0.0	1.0	0.5
H	5.5747375425514125	0.7188617345352144	1.801026676427225	0.0	0.0	1.0	0.5
H	6.122125242201426	2.1319896244846577	0.8564773408264323	0.0	0.0	1.0	0.5
C	4.5706886668861255	4.341457457510819	0.8873127481629557	0.0	0.0	1.0	0.5
C	1.3095537270211377	4.288888432882757	0.8877750840063117	0.0	0.0	1.0	0.5
H	1.8519834048809798	5.243176808470427	0.888070265497183	0.0	0.0	1.0	0.5
H	0.6641648156464104	4.258710454326464	1.7792534031088005	0.0	0.0	1.0	0.5
H	0.6633926968933594	4.259677884092129	-0.0031656521381066005	0.0	0.0	1.0	0.5
H	4.400135715777477	4.963665333065174	-0.003422998638117347	0.0	0.0	1.0	0.5
H	5.625404609465715	4.041582878503972	0.8901405860140255	0.0	0.0	1.0	0.5
H	4.39596112900025	4.965149443499715	1.7761850094651996	0.0	0.0	1.0	0.5
H	2.9650639825238194	-0.02665207097494271	0.8847881425837343	0.0	0.0	1.0	0.5
