40

N	1.8670275138339973	1.960961676089795	0.900549710065616	1.0	0.0	0.0	0.01
C	3.023933349413582	1.38340927584946	0.9034125903666246	1.0	0.0	0.0	0.01
N	4.213894970369327	1.8759348460717193	0.8984974550706554	1.0	0.0	0.0	0.01
H	2.9744173813584274	0.26835857135486657	0.9073740890875289	1.0	0.0	0.0	0.01
C	0.7030331203432889	1.075858887041385	0.8952386669306707	1.0	0.0	0.0	0.01
C	5.3301222595551545	0.9909516797795234	0.8991541974499694	1.0	0.0	0.0	0.01
H	0.07778958863794436	1.2931140953389957	1.7962790717105945	1.0	0.0	0.0	0.01
H	0.9077976708709745	-0.012181725984623224	0.8638888009137872	1.0	0.0	0.0	0.01
H	0.05602736674505574	1.3391712224140941	0.024154686652003654	1.0	0.0	0.0	0.01
H	5.954058985942518	1.1966671013662344	1.7990700501432058	1.0	0.0	0.0	0.01
H	5.955370789359923	1.1931838753580557	-0.0006117732583414597	1.0	0.0	0.0	0.01
H	5.038744225889637	-0.0589699191885955	0.9002626941410877	1.0	0.0	0.0	0.01
C	1.527727832778441	3.3664911653205825	0.9005047936962015	1.0	0.0	0.0	0.01
H	2.2797071284282615	4.17889570238788	0.9529504947625229	1.0	0.0	0.0	0.01
H	0.8308240511584173	3.5461001190898864	1.7550497219095673	1.0	0.0	0.0	0.01
H	0.9164687098714837	3.5747535965933768	-0.01398682980045874	1.0	0.0	0.0	0.01
C	4.356819338579258	3.324919166469437	0.8966042409220116	1.0	0.0	0.0	0.01
H	5.439294817999136	3.5375336942088826	0.8892082464998476	1.0	0.0	0.0	0.01
H	3.918324494399921	3.7696410946352494	1.8081269468939531	1.0	0.0	0.0	0.01
H	3.911196533827159	3.769960635235329	-0.011900084682888412	1.0	0.0	0.0	0.01
N	1.775822734615338	1.9427757440585607	0.8969632258387793	0.0	0.0	1.0	0.5
C	2.9760555639809794	1.4000384843621014	0.8975599637442453	0.0	0.0	1.0	0.5
N	4.180774661097839	1.9321823737698425	0.8992614577766537	0.0	0.0	1.0	0.5
H	2.969243477547673	0.305991789402555	0.8959945770444215	0.0	0.0	1.0	0.5
C	0.6156531305023081	1.0519089583655201	0.8948390134745124	0.0	0.0	1.0	0.5
C	5.334473999018098	1.0308123776425584	0.8995820959879636	0.0	0.0	1.0	0.5
H	0.011170262846278423	1.2370102674887133	1.7949518329906131	0.0	0.0	1.0	0.5
H	0.9350371668909268	0.0033530111732349432	0.8817710862935924	0.0	0.0	1.0	0.5
H	0.0010975009992004736	1.2559478851770711	0.005782416036738902	0.0	0.0	1.0	0.5
H	5.944305563087063	1.2128685496668214	1.796190036269039	0.0	0.0	1.0	0.5
H	5.946507513553641	1.215269679635656	0.004973997581907308	0.0	0.0	1.0	0.5
H	5.000792809549701	-0.013558160171925238	0.8978333644351533	0.0	0.0	1.0	0.5
C	1.4018220128869496	3.3538173204561	0.8966017549629237	0.0	0.0	1.0	0.5
H	2.2644663099140265	4.017868822773833	0.9195012141317116	0.0	0.0	1.0	0.5
H	0.7755099198789086	3.5524616240796685	1.7786502156059862	0.0	0.0	1.0	0.5
H	0.8119806261221263	3.5637660164576825	-0.007836856387004487	0.0	0.0	1.0	0.5
C	4.505266748167627	3.3573157767307698	0.9023096190425399	0.0	0.0	1.0	0.5
H	5.596980663370618	3.451952016859378	0.8955412966152659	0.0	0.0	1.0	0.5
H	4.123624812030913	3.8481777873393916	1.8083683188755488	0.0	0.0	1.0	0.5
H	4.1119946533016725	3.8547944341639955	0.004989139153564803	0.0	0.0	1.0	0.5
