32

N	1.8540757196783983	1.8889037626706515	0.8884454826988667	1.0	0.0	0.0	0.01
C	2.9363082091234625	1.1216338589059067	0.8885807013459741	1.0	0.0	0.0	0.01
N	4.067030440740931	1.865424655565185	0.8880759191103124	1.0	0.0	0.0	0.01
C	3.6910313743260086	3.172667186640593	0.8885321462737147	1.0	0.0	0.0	0.01
C	2.28708603727451	3.172605520249884	0.8884595215199768	1.0	0.0	0.0	0.01
C	0.4882539207383533	1.385665317985393	0.888447922495316	1.0	0.0	0.0	0.01
C	5.447558678674637	1.3495604677659552	0.8884298180048769	1.0	0.0	0.0	0.01
H	-0.012679060098171687	1.7374992977643893	-0.01780342126219275	1.0	0.0	0.0	0.01
H	-0.01302413596877813	1.7382847843117735	1.794201841627031	1.0	0.0	0.0	0.01
H	0.5984459451186243	0.30591524471538567	0.8889038215283572	1.0	0.0	0.0	0.01
H	6.149276915211896	2.1959200023548364	0.8921263995885411	1.0	0.0	0.0	0.01
H	5.568093957858513	0.7347627160525612	-0.0073071109146125145	1.0	0.0	0.0	0.01
H	5.565573173595785	0.7288859185482451	1.7805423443933823	1.0	0.0	0.0	0.01
H	2.952615144372705	0.05249932354419211	0.8887868168124408	1.0	0.0	0.0	0.01
Cl	4.768056451515122	4.488544190929871	0.8881104709316281	1.0	0.0	0.0	0.01
Cl	1.149714528553548	4.427475947550213	0.8883172920134942	1.0	0.0	0.0	0.01
N	1.8847848960577835	1.8533171160704078	0.8885061458682031	0.0	0.0	1.0	0.5
C	2.970431936372195	1.0855967673073659	0.8886723045646456	0.0	0.0	1.0	0.5
N	4.059516963749464	1.8515045444280633	0.8886223977940441	0.0	0.0	1.0	0.5
C	3.654863763702657	3.17120876537908	0.8883971802367148	0.0	0.0	1.0	0.5
C	2.2897027787268978	3.170771905259623	0.8883376550307889	0.0	0.0	1.0	0.5
C	0.4992297980636926	1.3905155107655967	0.8884411545328715	0.0	0.0	1.0	0.5
C	5.43552514952663	1.3536017992752154	0.8883455648325486	0.0	0.0	1.0	0.5
H	-0.004747156919370887	1.764042131119522	-0.01191190416686605	0.0	0.0	1.0	0.5
H	-0.005161569518184805	1.7650540599992548	1.7881370926452038	0.0	0.0	1.0	0.5
H	0.5030248130677863	0.2949136507038115	0.8890677710621512	0.0	0.0	1.0	0.5
H	6.112558723881858	2.2140825399242106	0.8921914886409431	0.0	0.0	1.0	0.5
H	5.602874720844994	0.7544069287892592	-0.014768514565440705	0.0	0.0	1.0	0.5
H	5.600777578872668	0.7480308037542924	1.7875665072265914	0.0	0.0	1.0	0.5
H	2.9695097709804767	-0.00507026653641196	0.8888449064339906	0.0	0.0	1.0	0.5
Cl	4.715719747253505	4.485913511503696	0.8882404710425128	0.0	0.0	1.0	0.5
Cl	1.208805386052496	4.468358427812047	0.8881597449882072	0.0	0.0	1.0	0.5
