84

N	5.001410876149313	3.395325078760734	1.8884161178876162	1.0	0.0	0.0	0.01
C	6.0707960913791945	3.363593596906507	1.1010778271281043	1.0	0.0	0.0	0.01
N	7.140188602509847	3.3335734045610854	1.8884751859870457	1.0	0.0	0.0	0.01
H	6.070802460097393	3.3624324939554957	0.016958091753710977	1.0	0.0	0.0	0.01
C	6.753817860163042	3.3613930922827633	3.237045083132174	1.0	0.0	0.0	0.01
C	5.387784927298148	3.3704081709148106	3.2370423568061217	1.0	0.0	0.0	0.01
C	3.6371385748977674	3.435037501438755	1.456509544243276	1.0	0.0	0.0	0.01
C	8.504459071095432	3.292917623700214	1.4566549555671051	1.0	0.0	0.0	0.01
C	3.089007079759443	2.23801040918595	0.9385688774311797	1.0	0.0	0.0	0.01
C	2.9414143549649845	4.666472593359542	1.5478248223734123	1.0	0.0	0.0	0.01
C	9.20014252656103	2.0616490962085363	1.5505304898562773	1.0	0.0	0.0	0.01
C	9.052646336926564	4.488844538766763	0.9362336618226408	1.0	0.0	0.0	0.01
H	7.4545238513879175	3.3726460875373845	4.061895300441781	1.0	0.0	0.0	0.01
H	4.6870835888386475	3.3609271817283215	4.06191900215815	1.0	0.0	0.0	0.01
C	1.7647005070016482	2.311041126445779	0.5105777228107963	1.0	0.0	0.0	0.01
C	3.8289267194545595	0.9595604400637818	0.8042886192572173	1.0	0.0	0.0	0.01
C	1.620455540239157	4.655297386174627	1.105799269280827	1.0	0.0	0.0	0.01
C	10.52110006712676	2.071854661220186	1.1084814951892712	1.0	0.0	0.0	0.01
C	11.090775721905928	3.228878521959334	0.5978445314785784	1.0	0.0	0.0	0.01
C	10.376949762656992	4.414874546706396	0.5083962571000149	1.0	0.0	0.0	0.01
C	1.050827847056456	3.497193034832971	0.5975648062101938	1.0	0.0	0.0	0.01
H	1.03127016064472	5.561511808077939	1.1652427832856302	1.0	0.0	0.0	0.01
C	8.312766720526415	5.76703734762667	0.7993093238864231	1.0	0.0	0.0	0.01
C	8.609788491099767	0.8199777987228998	2.1045524103214035	1.0	0.0	0.0	0.01
H	11.110252833686042	1.1657423171866848	1.1697991922253792	1.0	0.0	0.0	0.01
H	12.107806749055838	3.206016012306564	0.26300559432308607	1.0	0.0	0.0	0.01
H	10.851391508273958	5.295205891643404	0.09307966604344109	1.0	0.0	0.0	0.01
H	0.03379695806987548	3.5193196269468374	0.2626777737299818	1.0	0.0	0.0	0.01
H	1.2902940191526717	1.4298333919009754	0.09708321287629296	1.0	0.0	0.0	0.01
C	3.5317022628148522	5.909321156740383	2.0992682670417473	1.0	0.0	0.0	0.01
H	4.405468480471378	0.754329349952173	1.7401293310364305	1.0	0.0	0.0	0.01
H	4.581321116787739	1.0185519978964135	-0.018981942773277815	1.0	0.0	0.0	0.01
H	3.159600432066174	0.11037092452169009	0.5973067150650293	1.0	0.0	0.0	0.01
H	3.6869403866113286	5.8225890825730025	3.195405455600764	1.0	0.0	0.0	0.01
H	2.9000473455278386	6.7918953141125815	1.9103465004418991	1.0	0.0	0.0	0.01
H	4.542115185748644	6.074255737450465	1.656454875984316	1.0	0.0	0.0	0.01
H	7.599420476906587	0.6541281690079556	1.661980685075351	1.0	0.0	0.0	0.01
H	8.454412641593303	0.9090310319976154	3.200483040914584	1.0	0.0	0.0	0.01
H	9.24143916445803	-0.0630088843561928	1.9175671610463727	1.0	0.0	0.0	0.01
H	7.560306628474718	5.706325348097303	-0.023782026525587065	1.0	0.0	0.0	0.01
H	8.98209787670047	6.615772665195288	0.5904926516953949	1.0	0.0	0.0	0.01
H	7.736286428953878	5.974258665205015	1.7347458891451275	1.0	0.0	0.0	0.01
N	4.989759210984918	3.379759739940005	1.921945185014605	0.0	0.0	1.0	0.5
C	6.070821486044571	3.3633816931449356	1.1451895327950496	0.0	0.0	1.0	0.5
N	7.151854453705529	3.3485332034404083	1.9220138956059993	0.0	0.0	1.0	0.5
H	6.070834388279079	3.3622985367446643	0.05420252196185649	0.0	0.0	1.0	0.5
C	6.750351060770112	3.3554957443402715	3.245081119224878	0.0	0.0	1.0	0.5
C	5.391219362096234	3.3753588965502277	3.2450389867275216	0.0	0.0	1.0	0.5
C	3.627519912702764	3.394069192179273	1.4468979209341153	0.0	0.0	1.0	0.5
C	8.514114122119857	3.3336921947840463	1.447056154569235	0.0	0.0	1.0	0.5
C	3.0246113377578556	2.1687527396357438	1.1335879548605108	0.0	0.0	1.0	0.5
C	2.9832823023450254	4.632626247019719	1.3272694347424183	0.0	0.0	1.0	0.5
C	9.158857531098729	2.0951475587397064	1.3301726532052724	0.0	0.0	1.0	0.5
C	9.116506187570764	4.558582831129883	1.1310761035231425	0.0	0.0	1.0	0.5
H	7.469900254597774	3.346550963338114	4.061532676079775	0.0	0.0	1.0	0.5
H	4.6716458905566824	3.386025447456945	4.061448446965013	0.0	0.0	1.0	0.5
C	1.7040851381211315	2.2086246547050754	0.6766429678317679	0.0	0.0	1.0	0.5
C	3.7699778909739616	0.8676881557881053	1.274151299656072	0.0	0.0	1.0	0.5
C	1.6639171214181756	4.621346358970396	0.8662689676846769	0.0	0.0	1.0	0.5
C	10.478258383223679	2.1059696132635155	0.8692611162637011	0.0	0.0	1.0	0.5
C	11.109577137659546	3.3050452419817056	0.5452585179567975	0.0	0.0	1.0	0.5
C	10.437074855189188	4.518270002035285	0.6743020868903146	0.0	0.0	1.0	0.5
C	1.0321022543110017	3.4218340770185756	0.5448605492586995	0.0	0.0	1.0	0.5
H	1.1305863602233002	5.57029228080928	0.7599833222444567	0.0	0.0	1.0	0.5
C	8.370512816866537	5.859602565171876	1.2687487430077091	0.0	0.0	1.0	0.5
C	8.459338449689362	0.8109143612420895	1.6886507324991755	0.0	0.0	1.0	0.5
H	11.01199530667563	1.1570198379859535	0.7650727715522354	0.0	0.0	1.0	0.5
H	12.14291045145173	3.293737575401521	0.18747274583222562	0.0	0.0	1.0	0.5
H	10.94040733767211	5.455391624899313	0.419819745922863	0.0	0.0	1.0	0.5
H	-0.0012104600783162667	3.432780858173162	0.18700631805032808	0.0	0.0	1.0	0.5
H	1.200357134413033	1.271143015212258	0.4242782953434947	0.0	0.0	1.0	0.5
C	3.683255798192673	5.917370408032063	1.6830393719216488	0.0	0.0	1.0	0.5
H	4.225578948591146	0.7677318688683168	2.27184047903626	0.0	0.0	1.0	0.5
H	4.5830992922758425	0.792047504680395	0.5335884876125099	0.0	0.0	1.0	0.5
H	3.0923806735881945	0.017937047820700602	1.1173992355381284	0.0	0.0	1.0	0.5
H	3.9036770295091276	5.964084505906749	2.7616342420683098	0.0	0.0	1.0	0.5
H	3.0558331981059315	6.781383089815659	1.4269765746969945	0.0	0.0	1.0	0.5
H	4.641563481749633	6.016638347563763	1.1487798591136635	0.0	0.0	1.0	0.5
H	7.500912131781114	0.7103750197641876	1.1548412293849766	0.0	0.0	1.0	0.5
H	8.239203030948637	0.7662718631633494	2.767391890710512	0.0	0.0	1.0	0.5
H	9.086916617246988	-0.05343122519971333	1.434100530050642	0.0	0.0	1.0	0.5
H	7.55724602433418	5.93314491606559	0.5281315301081168	0.0	0.0	1.0	0.5
H	9.047653773910977	6.709340746953739	1.1099807956978278	0.0	0.0	1.0	0.5
H	7.914990556420007	5.961566034978704	2.266275586211759	0.0	0.0	1.0	0.5
