32

N	2.0359972918798643	1.8341979160389528	0.9385956743002134	1.0	0.0	0.0	0.01
C	3.160049344109549	1.094485547441082	0.943866823580933	1.0	0.0	0.0	0.01
N	4.238610829099121	1.8973520089491698	0.9386916919797363	1.0	0.0	0.0	0.01
H	3.1731205077917313	0.010267424162451112	0.9531975272688489	1.0	0.0	0.0	0.01
C	3.8153220317533374	3.1418898279077743	0.940268357028316	1.0	0.0	0.0	0.01
C	2.3869665776432387	3.1071538660669464	0.9470496361940476	1.0	0.0	0.0	0.01
C	0.6215777655013378	1.3817021750607847	0.9381000823531239	1.0	0.0	0.0	0.01
C	5.630921672328417	1.375869014203537	0.9405706223751431	1.0	0.0	0.0	0.01
H	0.008042085006288247	2.276327211536793	1.0483347540558454	1.0	0.0	0.0	0.01
H	0.4857228819887955	0.6941252818789766	1.7799711212014235	1.0	0.0	0.0	0.01
H	0.4296372768015615	0.8837091176212887	-0.018669283858637784	1.0	0.0	0.0	0.01
H	6.147389700817764	1.7497719873777804	1.830870456202389	1.0	0.0	0.0	0.01
H	6.1218637519552015	1.6875966180509991	0.01287660558474571	1.0	0.0	0.0	0.01
H	5.537992443289353	0.29322887271750925	0.977626131820973	1.0	0.0	0.0	0.01
H	4.469111800717707	4.006297266549574	0.9409419077647718	1.0	0.0	0.0	0.01
H	1.6860795832277087	3.9281887909047253	0.9532350835284009	1.0	0.0	0.0	0.01
N	2.039476891548053	1.8447785208944514	0.9664075580528075	0.0	0.0	1.0	0.5
C	3.121889108307616	1.07180867486611	1.0163733877624193	0.0	0.0	1.0	0.5
N	4.203635646906392	1.8414465431898688	0.9298204396172093	0.0	0.0	1.0	0.5
H	3.1225472364819873	-0.013880812271669818	1.1166023627337807	0.0	0.0	1.0	0.5
C	3.802364445307611	3.154772510380558	0.8219681934602109	0.0	0.0	1.0	0.5
C	2.441553781574539	3.156125331016896	0.8376931023210692	0.0	0.0	1.0	0.5
C	0.6585544097388039	1.3762014841616295	0.9599283004201425	0.0	0.0	1.0	0.5
C	5.587327863986509	1.3846887519659303	0.9886086515575392	0.0	0.0	1.0	0.5
H	0.04332381110472294	2.0963714105669036	1.5129047875140986	0.0	0.0	1.0	0.5
H	0.60627623364622	0.4033706777629098	1.4621277747150176	0.0	0.0	1.0	0.5
H	0.2915140784846324	1.2964326253240839	-0.0715066868309121	0.0	0.0	1.0	0.5
H	6.040991541664798	1.7112852103111245	1.9332109737592074	0.0	0.0	1.0	0.5
H	6.140429829495104	1.8099472673467503	0.14206701234324248	0.0	0.0	1.0	0.5
H	5.604151287566196	0.2904770831847008	0.9277916275177641	0.0	0.0	1.0	0.5
H	4.521814679821395	3.967402633558003	0.7423563419827287	0.0	0.0	1.0	0.5
H	1.7225546982764008	3.9709350142100934	0.7791733644539484	0.0	0.0	1.0	0.5
