56

N	3.0046766682327237	1.9478627242370703	2.3040037724082034	1.0	0.0	0.0	0.01
C	4.192206714279733	2.013098705789269	2.9595370630627187	1.0	0.0	0.0	0.01
N	5.213234724229608	1.7862584278702378	2.0930172598299057	1.0	0.0	0.0	0.01
H	4.269729596589898	2.2232991878776085	4.012958635157544	1.0	0.0	0.0	0.01
C	4.67233777511809	1.5707597778643554	0.911508783821653	1.0	0.0	0.0	0.01
C	3.231396604709984	1.6953431435631359	1.0489995953836868	1.0	0.0	0.0	0.01
C	1.6614321645532295	2.1302709522702528	2.9814938883785675	1.0	0.0	0.0	0.01
C	6.696925793420514	1.8525075327564022	2.3577955056274043	1.0	0.0	0.0	0.01
C	0.9637271620786657	3.329772018444164	2.3602776832380483	1.0	0.0	0.0	0.01
H	1.9901227806229025	2.3448866425862644	4.01535666103162	1.0	0.0	0.0	0.01
C	0.8999353863471852	0.8143556000046425	2.900802990550674	1.0	0.0	0.0	0.01
C	6.955934605119965	1.1040654397221488	3.657159246531067	1.0	0.0	0.0	0.01
C	7.132792086720372	3.3165767017368464	2.372311184220084	1.0	0.0	0.0	0.01
H	7.08956955735669	1.3119766633583103	1.4855029135938227	1.0	0.0	0.0	0.01
H	5.274326184771258	1.3750243015602723	0.030811320462348107	1.0	0.0	0.0	0.01
H	2.49045239344157	1.5869220427313362	0.2911517968100054	1.0	0.0	0.0	0.01
H	0.03550315826104868	3.5286196772850036	2.9094506340934583	1.0	0.0	0.0	0.01
H	0.7138709791289771	3.1732682816566546	1.3047657443540595	1.0	0.0	0.0	0.01
H	1.6147194472791129	4.2220319310891865	2.4322824891720787	1.0	0.0	0.0	0.01
H	0.6479227008983486	0.5376724752353043	1.8695541558643574	1.0	0.0	0.0	0.01
H	-0.03093990817517235	0.9005882745641346	3.472740011251847	1.0	0.0	0.0	0.01
H	1.5132632009449127	0.0007791168705912457	3.334207762237215	1.0	0.0	0.0	0.01
H	8.041126327181658	0.9668553412457975	3.763912574227881	1.0	0.0	0.0	0.01
H	6.467657667254523	0.10940503077104427	3.6265937420649985	1.0	0.0	0.0	0.01
H	6.591378920053424	1.6421881837305592	4.527579098632496	1.0	0.0	0.0	0.01
H	6.650506748520393	3.862783581434068	3.193352061517145	1.0	0.0	0.0	0.01
H	6.856478951035646	3.822819909070887	1.4293221600888792	1.0	0.0	0.0	0.01
H	8.219529350057115	3.375817742479876	2.5045972632935514	1.0	0.0	0.0	0.01
N	3.0351073274809073	1.9511197261222253	2.33769967830392	0.0	0.0	1.0	0.5
C	4.208852072466244	2.0836503649157527	2.948989984509807	0.0	0.0	1.0	0.5
N	5.182643465575434	1.8172863600366476	2.080610868146323	0.0	0.0	1.0	0.5
H	4.342323120632172	2.364919430044501	3.993885221027846	0.0	0.0	1.0	0.5
C	4.610578911675143	1.506930602879332	0.8675037901828111	0.0	0.0	1.0	0.5
C	3.2608453258824106	1.5886945741798173	1.0272845918495532	0.0	0.0	1.0	0.5
C	1.7160603187682715	2.159243450130322	2.9733473345736887	0.0	0.0	1.0	0.5
C	6.635513252108038	1.8876688423879384	2.3543749111117513	0.0	0.0	1.0	0.5
C	0.9972716748503325	3.3247280198164773	2.308953297886809	0.0	0.0	1.0	0.5
H	1.9482448143467637	2.4218911479006104	4.016507766598854	0.0	0.0	1.0	0.5
C	0.9152152380767729	0.8653300658601106	2.9476716632750786	0.0	0.0	1.0	0.5
C	6.991488215016609	1.0383838656691404	3.5658776149605678	0.0	0.0	1.0	0.5
C	7.071185252528892	3.340484359858647	2.487904099979241	0.0	0.0	1.0	0.5
H	7.099586069700277	1.4493978318336853	1.458584502280113	0.0	0.0	1.0	0.5
H	5.213075850370237	1.252513265069771	-0.0024655426025090854	0.0	0.0	1.0	0.5
H	2.452066829748447	1.4162498252150806	0.3196478177551212	0.0	0.0	1.0	0.5
H	0.0555707029604533	3.5204618795577454	2.841879873795201	0.0	0.0	1.0	0.5
H	0.7533208774187319	3.093637935680974	1.259909031280422	0.0	0.0	1.0	0.5
H	1.6107553536952746	4.237145523748106	2.3386207309246143	0.0	0.0	1.0	0.5
H	0.6743073155646049	0.5701498367658193	1.9143245007451215	0.0	0.0	1.0	0.5
H	-0.031082926343578343	1.0142639734194037	3.487326767893569	0.0	0.0	1.0	0.5
H	1.4676774535954862	0.04684482395234402	3.4319838157556246	0.0	0.0	1.0	0.5
H	8.084077101524294	1.02473275957012	3.6871706697170965	0.0	0.0	1.0	0.5
H	6.642026317147169	0.0030144205242428335	3.4408585663286235	0.0	0.0	1.0	0.5
H	6.555759730920244	1.453579425571741	4.488379342402447	0.0	0.0	1.0	0.5
H	6.614464148032229	3.8060262311465944	3.375983250910657	0.0	0.0	1.0	0.5
H	6.788825073959623	3.9219411468617293	1.5977990496428314	0.0	0.0	1.0	0.5
H	8.164058852330903	3.385519719086531	2.600432797670131	0.0	0.0	1.0	0.5
