32

N	1.867769957071986	1.9216960839373411	0.886963751024033	1.0	0.0	0.0	0.01
C	2.970699786069738	1.148018133561389	0.8872659408299283	1.0	0.0	0.0	0.01
N	4.073624670568462	1.9217061151782457	0.8871638275129367	1.0	0.0	0.0	0.01
H	2.9707067298133136	0.0657600415530817	0.887569357933855	1.0	0.0	0.0	0.01
C	3.68501434947521	3.1748406746336824	0.8871117329273641	1.0	0.0	0.0	0.01
C	2.256374390128887	3.1748344985454415	0.8872653880082437	1.0	0.0	0.0	0.01
C	0.4946242705035606	1.354613697259733	0.8870735888231025	1.0	0.0	0.0	0.01
C	5.446760380880619	1.354611247305412	0.8871822655498505	1.0	0.0	0.0	0.01
H	-0.0202722803203422	1.6789417500337112	-0.02411095744700606	1.0	0.0	0.0	0.01
H	-0.023775777537382515	1.6864511106285742	1.7935854607134687	1.0	0.0	0.0	0.01
H	0.621411141947525	0.2737721772242539	0.8916030506663336	1.0	0.0	0.0	0.01
H	5.319939860832138	0.2737644330887571	0.8869508801590625	1.0	0.0	0.0	0.01
H	5.963315590981397	1.6824949308798625	1.796166937718245	1.0	0.0	0.0	0.01
H	5.963517107635372	1.6828751698118278	-0.021552034042010105	1.0	0.0	0.0	0.01
H	4.351052378845393	4.028374394981428	0.8871046780634394	1.0	0.0	0.0	0.01
H	1.5903251356975165	4.028357895699793	0.887594557971963	1.0	0.0	0.0	0.01
N	1.8882337318067137	1.8475530698318754	0.8873250824767769	0.0	0.0	1.0	0.5
C	2.970692608221562	1.0738428969957454	0.8872642417799946	0.0	0.0	1.0	0.5
N	4.053151731901722	1.8475507242636149	0.8871482460393731	0.0	0.0	1.0	0.5
H	2.970689433946945	-0.016591103185770617	0.8873622369956238	0.0	0.0	1.0	0.5
C	3.6510119424590926	3.1652567885970706	0.8871044525299216	0.0	0.0	1.0	0.5
C	2.29037594239927	3.1652580057840987	0.8872157212383995	0.0	0.0	1.0	0.5
C	0.5040786582656733	1.3863092915054434	0.8870394905373025	0.0	0.0	1.0	0.5
C	5.437306658166222	1.3863065029721908	0.8872251419678678	0.0	0.0	1.0	0.5
H	-0.0007037982643178786	1.7573050284544325	-0.013848098684696164	0.0	0.0	1.0	0.5
H	-0.0031607631281365123	1.7645257243660613	1.7835129132734497	0.0	0.0	1.0	0.5
H	0.49573648076023513	0.29039128460173624	0.8915184711885745	0.0	0.0	1.0	0.5
H	5.445645483173764	0.2903805020038974	0.8870261315698833	0.0	0.0	1.0	0.5
H	5.943226234915573	1.7607567696643882	1.7860341023170077	0.0	0.0	1.0	0.5
H	5.943411200992991	1.7610780741451673	-0.011342896996153207	0.0	0.0	1.0	0.5
H	4.365920073542781	3.985591674431487	0.8870743449683244	0.0	0.0	1.0	0.5
H	1.5754720734332994	3.985597119891094	0.8872788452111608	0.0	0.0	1.0	0.5
