82

N	5.0270192261165825	3.2060080055277087	1.961390877932398	1.0	0.0	0.0	0.01
C	6.09614797593663	3.1256488725366616	1.133027344968945	1.0	0.0	0.0	0.01
N	7.165280323246488	3.046696009037412	1.9615736447782552	1.0	0.0	0.0	0.01
C	6.770613956046377	3.0792621145237136	3.30868622710155	1.0	0.0	0.0	0.01
C	5.4216302536741035	3.1750415961905105	3.308610815289938	1.0	0.0	0.0	0.01
C	3.6693973699676836	3.1907213349709043	1.5140631081731861	1.0	0.0	0.0	0.01
C	8.522885647036965	3.0610116540520385	1.5141636936330203	1.0	0.0	0.0	0.01
C	3.192774911477533	4.353872524824211	0.8474938329385632	1.0	0.0	0.0	0.01
C	2.844076033237972	2.0549244103911044	1.7785835236637884	1.0	0.0	0.0	0.01
C	8.998906771807286	1.897225085716728	0.8481080875588917	1.0	0.0	0.0	0.01
C	9.348770174315236	4.196579342010037	1.7776974903119551	1.0	0.0	0.0	0.01
H	7.468186150814705	3.0143378662436975	4.161197262916183	1.0	0.0	0.0	0.01
H	4.724123542138917	3.241281710583274	4.161089101107773	1.0	0.0	0.0	0.01
C	1.4908123057102454	2.1446490503961875	1.3612469528729352	1.0	0.0	0.0	0.01
C	0.9966857341609697	3.2867960127561675	0.7368028875685704	1.0	0.0	0.0	0.01
C	1.8266106310496728	4.374690563070896	0.47413698576635466	1.0	0.0	0.0	0.01
C	10.365011000714741	1.875503577564848	0.4746536036545222	1.0	0.0	0.0	0.01
C	11.195488242182778	2.9631747621398348	0.736561893638177	1.0	0.0	0.0	0.01
C	10.701909980898625	4.105976133184604	1.3602530603188336	1.0	0.0	0.0	0.01
C	4.121934777890363	5.496290896721464	0.6192233172890861	1.0	0.0	0.0	0.01
C	3.3889052599465495	0.837782126044638	2.451556809110902	1.0	0.0	0.0	0.01
H	0.8230670512445329	1.3000544921571473	1.5424250361249137	1.0	0.0	0.0	0.01
H	-0.051426794120164966	3.330131768860155	0.44550442519514794	1.0	0.0	0.0	0.01
H	1.423500231647458	5.255046741576014	-0.02843922987026813	1.0	0.0	0.0	0.01
C	8.069053020863917	0.7552485420837572	0.6205017721220653	1.0	0.0	0.0	0.01
H	11.370075408837565	4.950421606495639	1.540742936493799	1.0	0.0	0.0	0.01
C	8.805122037907243	5.414438103173531	2.450278834305493	1.0	0.0	0.0	0.01
H	10.767621973275277	0.9946272660064124	-0.027411716145798383	1.0	0.0	0.0	0.01
H	12.24355360269978	2.9191303168382614	0.4452129550446883	1.0	0.0	0.0	0.01
H	3.427599919359915	0.9478978958253053	3.5458450921874483	1.0	0.0	0.0	0.01
H	4.408027173808408	0.6125357165174302	2.119240794925732	1.0	0.0	0.0	0.01
H	2.7422643824886257	-0.02602623471715929	2.2383022698200636	1.0	0.0	0.0	0.01
H	4.489671716634248	5.921477699399805	1.5631053021002785	1.0	0.0	0.0	0.01
H	3.6066862799617807	6.299628075917912	0.07110936659488891	1.0	0.0	0.0	0.01
H	5.000111110395638	5.169370147770337	0.03169212727448217	1.0	0.0	0.0	0.01
H	9.449780814531325	6.278564449229695	2.232566094619432	1.0	0.0	0.0	0.01
H	8.771658714019322	5.30662720465071	3.545049617576808	1.0	0.0	0.0	0.01
H	7.784224011095372	5.637348445534234	2.1220717926530375	1.0	0.0	0.0	0.01
H	7.191765776515599	1.0820743875588599	0.031584444077948366	1.0	0.0	0.0	0.01
H	7.699967743057502	0.3318615121858593	1.564666622049328	1.0	0.0	0.0	0.01
H	8.584188810984978	-0.04933209966028555	0.07412969861422346	1.0	0.0	0.0	0.01
N	5.039217918303519	3.1947783262300615	1.9752092416195182	0.0	0.0	1.0	0.5
C	6.096223340439169	3.126224106664384	1.1211482107419934	0.0	0.0	1.0	0.5
N	7.153233958950457	3.058217812240693	1.9752441759116817	0.0	0.0	1.0	0.5
C	6.771547321999284	3.083261260119917	3.311951546400535	0.0	0.0	1.0	0.5
C	5.420967729916998	3.1713978361448003	3.3119268592405504	0.0	0.0	1.0	0.5
C	3.677761937966071	3.2838972413371335	1.5376661918032324	0.0	0.0	1.0	0.5
C	8.514634038637588	2.9679707068165646	1.5377532339066633	0.0	0.0	1.0	0.5
C	3.090156322348706	4.551868695509243	1.4165283121098629	0.0	0.0	1.0	0.5
C	2.9824932474328083	2.100902506366514	1.2473526125876604	0.0	0.0	1.0	0.5
C	9.101431771970791	1.6995425128982204	1.4174290914702181	0.0	0.0	1.0	0.5
C	9.21065699491104	4.1503284791197785	1.2466898432139375	0.0	0.0	1.0	0.5
H	7.49037980324347	3.035573935686585	4.128389338392501	0.0	0.0	1.0	0.5
H	4.702162658792073	3.2200163972447795	4.128334060408974	0.0	0.0	1.0	0.5
C	1.654265608286818	2.2102636552941135	0.8225354537664763	0.0	0.0	1.0	0.5
C	1.0472873989262732	3.458017330828661	0.6960711328949543	0.0	0.0	1.0	0.5
C	1.7599735265911267	4.618632635555544	0.9898104859986927	0.0	0.0	1.0	0.5
C	10.431585955407503	1.631662601200026	0.9907999265451464	0.0	0.0	1.0	0.5
C	11.145030569894002	2.7916398825425204	0.6963743098836817	0.0	0.0	1.0	0.5
C	10.538838892323074	4.039858384097476	0.8220140103793617	0.0	0.0	1.0	0.5
C	3.875631966035171	5.798178252925434	1.7296912323772387	0.0	0.0	1.0	0.5
C	3.654115235658585	0.7591209805184662	1.3782359077117503	0.0	0.0	1.0	0.5
H	1.0917584786869776	1.300848863797541	0.5900756420449754	0.0	0.0	1.0	0.5
H	0.007142502811825935	3.5265367042193665	0.3645397110565243	0.0	0.0	1.0	0.5
H	1.2815553102635286	5.597479298786848	0.8875788420430911	0.0	0.0	1.0	0.5
C	8.315154349137604	0.453920315030341	1.731306139125184	0.0	0.0	1.0	0.5
H	11.101922443843446	4.948769185476724	0.588980845245431	0.0	0.0	1.0	0.5
C	8.539832238686518	5.492602918637807	1.3766185695483115	0.0	0.0	1.0	0.5
H	10.909389012339297	0.6524516653957542	0.889173553792034	0.0	0.0	1.0	0.5
H	12.185141526128724	2.7222453086648204	0.3649167383819565	0.0	0.0	1.0	0.5
H	4.108754549799554	0.6326464045159597	2.373417851541328	0.0	0.0	1.0	0.5
H	4.465353575458826	0.6530230826348933	0.6399742434978771	0.0	0.0	1.0	0.5
H	2.93347888634514	-0.05474882343793963	1.218507071225811	0.0	0.0	1.0	0.5
H	4.178894599259605	5.824670678063216	2.788602836655	0.0	0.0	1.0	0.5
H	3.280372231219437	6.697651189490457	1.5208565315916702	0.0	0.0	1.0	0.5
H	4.799193732715572	5.842547664768002	1.130712816989903	0.0	0.0	1.0	0.5
H	9.260958303328824	6.305937036407101	1.2163754267404292	0.0	0.0	1.0	0.5
H	8.08521571507981	5.620030059930734	2.37168761873468	0.0	0.0	1.0	0.5
H	7.728711871634998	5.598670123837643	0.6382212370366743	0.0	0.0	1.0	0.5
H	7.3918015174985845	0.40951586037451726	1.1320065609408483	0.0	0.0	1.0	0.5
H	8.011446294739226	0.4284993600070801	2.790118511622435	0.0	0.0	1.0	0.5
H	8.910009916566755	-0.4460507500515196	1.523472831178735	0.0	0.0	1.0	0.5
