68

N	3.3705299541716625	2.3180597556450353	1.9022360103284355	1.0	0.0	0.0	0.01
C	4.49063799758897	1.9483516778830046	2.595226154311973	1.0	0.0	0.0	0.01
N	5.563875824257086	2.3052148850190446	1.8727857510032337	1.0	0.0	0.0	0.01
H	4.495568602557793	1.4655040644245725	3.5281053247462757	1.0	0.0	0.0	0.01
C	5.177299572674557	2.879361192767636	0.7545390115601233	1.0	0.0	0.0	0.01
C	3.714304687693627	2.8900880481870246	0.7790962874493672	1.0	0.0	0.0	0.01
C	1.9233484384680621	2.059409426009289	2.306530578962079	1.0	0.0	0.0	0.01
C	7.012958295486624	2.049202841111867	2.3021032711373177	1.0	0.0	0.0	0.01
C	0.9808472885865769	2.8348213375844318	1.3792254092071952	1.0	0.0	0.0	0.01
C	1.817206760697661	2.5495890591317525	3.754214304220094	1.0	0.0	0.0	0.01
C	1.6859741893228894	0.5471264686147952	2.2177785501180702	1.0	0.0	0.0	0.01
C	7.628121187075902	1.1006953712014365	1.2744797882239136	1.0	0.0	0.0	0.01
C	6.9436837302289955	1.3834233023954727	3.6993132522014878	1.0	0.0	0.0	0.01
C	7.700771217965083	3.4098644300992604	2.3661710934030635	1.0	0.0	0.0	0.01
H	5.831569007347233	3.2635912478927676	-0.0019369909523314801	1.0	0.0	0.0	0.01
H	3.0505505359423544	3.257574145553702	0.04275392708962066	1.0	0.0	0.0	0.01
H	1.207512621893356	3.900977451257443	1.4257351244356324	1.0	0.0	0.0	0.01
H	-0.03788314884663334	2.6782203912093094	1.7560333964246209	1.0	0.0	0.0	0.01
H	1.0264397652957096	2.461633873024474	0.3619141686404586	1.0	0.0	0.0	0.01
H	2.3610938903725844	0.0056143878301304455	2.882885837764682	1.0	0.0	0.0	0.01
H	1.838722741300162	0.21989138784187412	1.1798946786413012	1.0	0.0	0.0	0.01
H	0.6516593725337069	0.3402940049693994	2.4937820018686128	1.0	0.0	0.0	0.01
H	6.4662046682275385	0.41609533193698595	3.6395100148591504	1.0	0.0	0.0	0.01
H	6.472608966513713	2.0512382838644823	4.40850247360966	1.0	0.0	0.0	0.01
H	7.988651853795736	1.234592998387077	4.0055337242337625	1.0	0.0	0.0	0.01
H	2.451904867157245	1.9827429424351244	4.411386778424	1.0	0.0	0.0	0.01
H	0.7747455112758497	2.4461072819868526	4.063302922627941	1.0	0.0	0.0	0.01
H	2.0817761067456004	3.6150496867017474	3.779631191498595	1.0	0.0	0.0	0.01
H	8.657831783478226	0.8884419205850268	1.5675831051636417	1.0	0.0	0.0	0.01
H	7.611516890586115	1.5332711220850093	0.27429607696194985	1.0	0.0	0.0	0.01
H	7.060445216539178	0.1606304607230366	1.2766276489350816	1.0	0.0	0.0	0.01
H	7.178820274306874	4.0366397558006755	3.1027645015683913	1.0	0.0	0.0	0.01
H	7.694874607956169	3.898770108313486	1.3953592287886625	1.0	0.0	0.0	0.01
H	8.728715889554655	3.264351442345925	2.7026365074774725	1.0	0.0	0.0	0.01
N	3.3660617232931944	2.30746548331389	1.8807690459796778	0.0	0.0	1.0	0.5
C	4.442368994181525	1.8906122778552685	2.5489968576942053	0.0	0.0	1.0	0.5
N	5.54135354046047	2.255458756877238	1.8928554991994584	0.0	0.0	1.0	0.5
H	4.419467959108302	1.3366040621579187	3.485437308023223	0.0	0.0	1.0	0.5
C	5.15517398399702	2.9359907253224438	0.7579791535072118	0.0	0.0	1.0	0.5
C	3.7954040810997696	2.9682903294532403	0.750154864734814	0.0	0.0	1.0	0.5
C	1.95331977938097	2.0827259982685153	2.3320950503741167	0.0	0.0	1.0	0.5
C	6.960573615900946	2.0044674167153937	2.29787314184665	0.0	0.0	1.0	0.5
C	1.003942633176032	2.661332011522198	1.2878423544520776	0.0	0.0	1.0	0.5
C	1.7658009862375423	2.798398702195502	3.6706760778348633	0.0	0.0	1.0	0.5
C	1.731530163676576	0.5756074242538893	2.4670474005308174	0.0	0.0	1.0	0.5
C	7.6430023452780125	1.239326914122862	1.1634345182573207	0.0	0.0	1.0	0.5
C	6.977430073294874	1.1762282929773158	3.5783608911272546	0.0	0.0	1.0	0.5
C	7.624146772448601	3.361911288798338	2.5324171740790793	0.0	0.0	1.0	0.5
H	5.8692188011645445	3.3428268268606245	0.045457449549070716	0.0	0.0	1.0	0.5
H	3.1153509962759767	3.4076833471390438	0.02619228387126782	0.0	0.0	1.0	0.5
H	1.1381742317718033	3.7472567549955405	1.1707646318709626	0.0	0.0	1.0	0.5
H	-0.026726731430188444	2.483245742317609	1.6252594880893618	0.0	0.0	1.0	0.5
H	1.1289706660810972	2.17321532983454	0.30946721192027815	0.0	0.0	1.0	0.5
H	2.3923625546139915	0.13174855790912332	3.226624240761665	0.0	0.0	1.0	0.5
H	1.9050553574994855	0.06888263676738982	1.5054776097504061	0.0	0.0	1.0	0.5
H	0.6920203586062388	0.3905828986770634	2.7746109402485493	0.0	0.0	1.0	0.5
H	6.485873870549478	0.2011395376945042	3.4388782002242504	0.0	0.0	1.0	0.5
H	6.499596767756268	1.7073397912090504	4.415705434393102	0.0	0.0	1.0	0.5
H	8.02497191477235	0.9892219756012659	3.8528443934155163	0.0	0.0	1.0	0.5
H	2.4353481000263444	2.394409696140756	4.445170866151082	0.0	0.0	1.0	0.5
H	0.729480322066443	2.660814686195638	4.012072443630283	0.0	0.0	1.0	0.5
H	1.9579999169588787	3.8767379243865943	3.5638535109873795	0.0	0.0	1.0	0.5
H	8.686349468809007	1.0351818624747156	1.444576941246412	0.0	0.0	1.0	0.5
H	7.651357784133991	1.819665541008087	0.2287833667748569	0.0	0.0	1.0	0.5
H	7.136889865827143	0.27909029899230453	0.9812827747474036	0.0	0.0	1.0	0.5
H	7.106237854137579	3.9143223658074735	3.331075834314799	0.0	0.0	1.0	0.5
H	7.625906552683445	3.975021437692924	1.6185368084397997	0.0	0.0	1.0	0.5
H	8.668873864913067	3.20363318928091	2.8374273369063077	0.0	0.0	1.0	0.5
