84

N	5.000901023822305	3.375057866333688	1.9962677019803634	1.0	0.0	0.0	0.01
C	6.070272585358095	3.349998284236375	1.2071935940991274	1.0	0.0	0.0	0.01
N	7.139666467877869	3.3267964988588794	1.9962973418360725	1.0	0.0	0.0	0.01
H	6.070280522065124	3.3487717094685485	0.12383424795942935	1.0	0.0	0.0	0.01
C	6.753080455673923	3.363757195808534	3.3447884158102528	1.0	0.0	0.0	0.01
C	5.387486108897693	3.3410985799045076	3.34482425644199	1.0	0.0	0.0	0.01
C	3.637741662348475	3.4235629926609685	1.5638087299328105	1.0	0.0	0.0	0.01
C	8.50281849025769	3.277250986649092	1.5639608717349622	1.0	0.0	0.0	0.01
C	3.102072831882182	2.239597153259579	1.0041667825631901	1.0	0.0	0.0	0.01
C	2.9333520608388817	4.647544450914242	1.6919807360400352	1.0	0.0	0.0	0.01
C	9.207105996152109	2.0534694124026966	1.6946634837762151	1.0	0.0	0.0	0.01
C	9.038619077768779	4.460020103360964	1.00189671543037	1.0	0.0	0.0	0.01
H	7.451317556670011	3.387609401024487	4.171571064992109	1.0	0.0	0.0	0.01
H	4.689262301940178	3.3190739699705225	4.171669632868962	1.0	0.0	0.0	0.01
C	1.7791404830934847	2.3159370995088295	0.5758925347345292	1.0	0.0	0.0	0.01
C	3.8455924310394596	0.9689791662513363	0.8186630740911827	1.0	0.0	0.0	0.01
C	1.6137087743906873	4.638154722190046	1.2492160613999617	1.0	0.0	0.0	0.01
C	10.526753035359558	2.061826920922967	1.2518959899496809	1.0	0.0	0.0	0.01
C	11.08519814159163	3.2061561888896226	0.7021573973219374	1.0	0.0	0.0	0.01
C	10.361550645612144	4.3826729529740405	0.5737929586206146	1.0	0.0	0.0	0.01
C	1.055378096622658	3.492645324811974	0.7018243918382567	1.0	0.0	0.0	0.01
H	1.015835252707579	5.535983407925396	1.3407806082559555	1.0	0.0	0.0	0.01
C	8.295144117574278	5.73027713403575	0.8138073388964554	1.0	0.0	0.0	0.01
C	8.643176178375931	0.8174243043469871	2.2894958930109914	1.0	0.0	0.0	0.01
H	11.124543693498245	1.1641350474955912	1.3453075068698188	1.0	0.0	0.0	0.01
H	12.101398109160316	3.181119422499937	0.3662182362619462	1.0	0.0	0.0	0.01
H	10.827069460403091	5.251305359757443	0.12499237974433608	1.0	0.0	0.0	0.01
H	0.039179988857578944	3.516892032454111	0.3658227132291745	1.0	0.0	0.0	0.01
H	1.3137189800833327	1.4463346823889371	0.12886548627887331	1.0	0.0	0.0	0.01
C	3.4971632752063173	5.884855792462154	2.284272167514462	1.0	0.0	0.0	0.01
H	4.446120202084435	0.7465699852369768	1.7369260122558579	1.0	0.0	0.0	0.01
H	4.576353842148729	1.05397031903364	-0.01996996783774439	1.0	0.0	0.0	0.01
H	3.1761600604320734	0.12068641029369029	0.6027464464460635	1.0	0.0	0.0	0.01
H	3.5935722611809786	5.783233295607081	3.3861644862702964	1.0	0.0	0.0	0.01
H	2.8753829622580254	6.771682235922323	2.078422323807417	1.0	0.0	0.0	0.01
H	4.527821331859287	6.048422561072704	1.8922321130846416	1.0	0.0	0.0	0.01
H	8.546601424270566	0.921391501057867	3.3911569007739875	1.0	0.0	0.0	0.01
H	9.264913771057545	-0.0698785756885408	2.0856023868548634	1.0	0.0	0.0	0.01
H	7.612563448317431	0.6531072564971914	1.8976898085513914	1.0	0.0	0.0	0.01
H	7.694981840199238	5.954839840709402	1.7317774064336309	1.0	0.0	0.0	0.01
H	7.564002725372917	5.643444735896422	-0.024319916605764935	1.0	0.0	0.0	0.01
H	8.964543398328363	6.578037552558674	0.5957357993880407	1.0	0.0	0.0	0.01
N	4.9892115466473115	3.3649502181057382	2.0253136273860797	0.0	0.0	1.0	0.5
C	6.070295072685347	3.3499298032737146	1.248611427098579	0.0	0.0	1.0	0.5
N	7.151366372438174	3.3365563761599817	2.025358246336334	0.0	0.0	1.0	0.5
H	6.070298538812391	3.3487654524779638	0.1576204131455714	0.0	0.0	1.0	0.5
C	6.749860109415957	3.343205227828233	3.3484374491002615	0.0	0.0	1.0	0.5
C	5.390703075708434	3.36105468498589	3.3484104574566818	0.0	0.0	1.0	0.5
C	3.626839556601761	3.3768846373177066	1.550451471809956	0.0	0.0	1.0	0.5
C	8.513748590482406	3.3237999687482054	1.550560392201725	0.0	0.0	1.0	0.5
C	3.02590392741332	2.1503657505652995	1.2381444722381716	0.0	0.0	1.0	0.5
C	2.9809181053122766	4.614465966385548	1.4297987222028106	0.0	0.0	1.0	0.5
C	9.15986112574492	2.08607043883545	1.4325591456210318	0.0	0.0	1.0	0.5
C	9.114474866019007	4.549758091804583	1.2356593787609795	0.0	0.0	1.0	0.5
H	7.469306277624077	3.335449265605892	4.164994638023156	0.0	0.0	1.0	0.5
H	4.671250289765526	3.370669712541925	4.164943290724938	0.0	0.0	1.0	0.5
C	1.705277074537583	2.1879600126549086	0.7811958489538154	0.0	0.0	1.0	0.5
C	3.7733342751562278	0.8506063265405674	1.3792875029156204	0.0	0.0	1.0	0.5
C	1.6615660311777907	4.600788489924984	0.9688055419336209	0.0	0.0	1.0	0.5
C	10.47924559661718	2.0989886091619585	0.9716383175761883	0.0	0.0	1.0	0.5
C	11.109058466649085	3.299148737136632	0.6487198651783856	0.0	0.0	1.0	0.5
C	10.435130871381707	4.51142042834739	0.7788609938239458	0.0	0.0	1.0	0.5
C	1.0315612861320176	3.4000547879691068	0.6484069816791328	0.0	0.0	1.0	0.5
H	1.126779078751892	5.548830426402549	0.8617437209847518	0.0	0.0	1.0	0.5
C	8.366738230015427	5.8496472239506305	1.3739913406701747	0.0	0.0	1.0	0.5
C	8.461695643717126	0.800690372471264	1.7894035879856365	0.0	0.0	1.0	0.5
H	11.014198845049533	1.1508121597011485	0.8666081417762511	0.0	0.0	1.0	0.5
H	12.142400709938151	3.289410403031411	0.2909073143627703	0.0	0.0	1.0	0.5
H	10.9372859653706	5.449416189292307	0.5252547250639416	0.0	0.0	1.0	0.5
H	-0.001766688148507889	3.4091984218982754	0.2905365256578547	0.0	0.0	1.0	0.5
H	1.2029600012603252	1.249494080876052	0.5296551072147994	0.0	0.0	1.0	0.5
C	3.67923144519282	5.90050081400971	1.784005292164718	0.0	0.0	1.0	0.5
H	4.231047337991136	0.7526520687438576	2.376206904680269	0.0	0.0	1.0	0.5
H	4.585281969294372	0.7751790537450627	0.6374026419942068	0.0	0.0	1.0	0.5
H	3.0967425505302923	-0.00037516310481322535	1.2249086215534577	0.0	0.0	1.0	0.5
H	3.9037486732526707	5.947265237691513	2.8617394754775756	0.0	0.0	1.0	0.5
H	3.049079222861849	6.763275340967931	1.5305176616097795	0.0	0.0	1.0	0.5
H	4.635374228113561	6.001972529843524	1.2462417478858916	0.0	0.0	1.0	0.5
H	8.237300297423987	0.7560579781838972	2.867253434094157	0.0	0.0	1.0	0.5
H	9.09187289041368	-0.06253829124567245	1.5375292137582746	0.0	0.0	1.0	0.5
H	7.50549285179747	0.6981041121851481	1.2519551170197551	0.0	0.0	1.0	0.5
H	7.909164845470711	5.949684390983133	2.370771968201833	0.0	0.0	1.0	0.5
H	7.5546327431261115	5.92318267270411	0.632086174233187	0.0	0.0	1.0	0.5
H	9.043073174893589	6.700462273262909	1.2175952123504505	0.0	0.0	1.0	0.5
