54

N	2.858158745739667	2.1779877456352623	2.4058934945556953	1.0	0.0	0.0	0.01
C	3.9100748925745137	2.09286325453902	1.5761618041972576	1.0	0.0	0.0	0.01
N	4.961732546379759	2.034114590051675	2.4084925036729974	1.0	0.0	0.0	0.01
C	4.589493499573059	2.0879261022390554	3.737876114034502	1.0	0.0	0.0	0.01
C	3.229883790849882	2.167313108238577	3.73631016781067	1.0	0.0	0.0	0.01
C	1.4525602914262297	2.19618544683451	1.9362138547854142	1.0	0.0	0.0	0.01
C	6.367495159193152	2.000526994709276	1.940055323573609	1.0	0.0	0.0	0.01
C	1.2594075601905768	3.2171116272519513	0.8161407324141052	1.0	0.0	0.0	0.01
H	0.8775415345535122	2.5285983841422404	2.811589960140494	1.0	0.0	0.0	0.01
C	1.0330412549783263	0.7724958225483239	1.5895437398265275	1.0	0.0	0.0	0.01
H	6.941939786354962	1.6927391765914088	2.8247577049955916	1.0	0.0	0.0	0.01
C	6.788687801187291	3.4131812863789577	1.5527394136814006	1.0	0.0	0.0	0.01
C	6.560136847997364	0.9476023102399613	0.8498517797287809	1.0	0.0	0.0	0.01
H	5.326593008356214	2.0593120526880773	4.5411201987211856	1.0	0.0	0.0	0.01
H	2.492292302958657	2.222025829781174	4.537768865902106	1.0	0.0	0.0	0.01
H	1.1569626624616494	0.09152414065332545	2.4474599429366477	1.0	0.0	0.0	0.01
H	1.6340983647533327	0.38433080628463395	0.7497753973422461	1.0	0.0	0.0	0.01
H	-0.024122586430679518	0.7402143379038567	1.284465856657504	1.0	0.0	0.0	0.01
H	1.5535343086556972	4.227291972140278	1.1354169854997145	1.0	0.0	0.0	0.01
H	0.20986279518041645	3.248861513426626	0.4915543730554624	1.0	0.0	0.0	0.01
H	1.8801490080361813	2.9395151448300334	-0.05375482029947838	1.0	0.0	0.0	0.01
H	5.940197593300152	1.2007394230020696	-0.02805089382392081	1.0	0.0	0.0	0.01
H	6.2646292836387625	-0.05259063333777251	1.1979395268677469	1.0	0.0	0.0	0.01
H	7.609831718498354	0.9053934006355139	0.5269361750981354	1.0	0.0	0.0	0.01
H	7.846054638934252	3.435514463437496	1.2473832511179943	1.0	0.0	0.0	0.01
H	6.665191311131139	4.1186773919792845	2.3906933875019636	1.0	0.0	0.0	0.01
H	6.1885231797578095	3.7777669217878764	0.7018334506113221	1.0	0.0	0.0	0.01
N	2.8486701822050042	2.112605744418164	2.4090943619788217	0.0	0.0	1.0	0.5
C	3.91022618914341	2.0845201760323704	1.5632609794250034	0.0	0.0	1.0	0.5
N	4.971281879948595	2.0971773625369736	2.410089262775127	0.0	0.0	1.0	0.5
C	4.587669385611293	2.1336683188442755	3.7406677727030804	0.0	0.0	1.0	0.5
C	3.2315441705050234	2.143436683801432	3.740036272080454	0.0	0.0	1.0	0.5
C	1.4467530675520468	2.1138487890180597	1.9699808538499437	0.0	0.0	1.0	0.5
C	6.373432005432087	2.0762220118100725	1.972246477853942	0.0	0.0	1.0	0.5
C	1.1285772198462487	3.3747862261122266	1.175914805914327	0.0	0.0	1.0	0.5
H	0.8522230608667463	2.12479389800626	2.8977442262623345	0.0	0.0	1.0	0.5
C	1.1178416556718735	0.8409547146848142	1.1995348629068405	0.0	0.0	1.0	0.5
H	6.967287023708836	2.0819988249824792	2.9004911301343066	0.0	0.0	1.0	0.5
C	6.710777073830257	3.329840364514805	1.174365876875759	0.0	0.0	1.0	0.5
C	6.684138973157315	0.7962025789439311	1.2062096735409662	0.0	0.0	1.0	0.5
H	5.304734953920017	2.1503605661050624	4.56011151620746	0.0	0.0	1.0	0.5
H	2.5140127697459915	2.1702168201121323	4.558808383152249	0.0	0.0	1.0	0.5
H	1.3380685855090588	-0.052177079314942976	1.8040503820453169	0.0	0.0	1.0	0.5
H	1.712000900370068	0.7889677400814146	0.27416566496028283	0.0	0.0	1.0	0.5
H	0.050551650949865135	0.8244268713230549	0.9313490505130756	0.0	0.0	1.0	0.5
H	1.358071557772842	4.276837453827827	1.763606486185889	0.0	0.0	1.0	0.5
H	0.06123706221727998	3.396558394776062	0.9083735488132173	0.0	0.0	1.0	0.5
H	1.722671532509135	3.404035411698278	0.24939203633812013	0.0	0.0	1.0	0.5
H	6.092598297059955	0.7515117654651953	0.2787728909504288	0.0	0.0	1.0	0.5
H	6.446351954140531	-0.09155787317365638	1.8120102715012925	0.0	0.0	1.0	0.5
H	7.752079440848262	0.761250578627011	0.9425591588915847	0.0	0.0	1.0	0.5
H	7.777764952017534	3.3333555945372	0.904439742794037	0.0	0.0	1.0	0.5
H	6.497719014660999	4.23712923881588	1.7601468096599489	0.0	0.0	1.0	0.5
H	6.115666741029989	3.3662514380262993	0.24874579229186522	0.0	0.0	1.0	0.5
