56

N	2.7846584022556735	2.3958536561728896	2.714455552715817	1.0	0.0	0.0	0.01
C	3.8657243856413297	1.9101301012462282	2.031196304482117	1.0	0.0	0.0	0.01
N	5.000111852924421	2.3914776721226656	2.5509820422044314	1.0	0.0	0.0	0.01
H	3.7875464020051313	1.2885524839881068	1.2228243546279007	1.0	0.0	0.0	0.01
C	4.63605676273975	3.1202926515802707	3.592236082687535	1.0	0.0	0.0	0.01
C	3.1623325499482116	3.1134380045703045	3.675943069080151	1.0	0.0	0.0	0.01
C	1.3709263978748545	2.1629538108995257	2.200293699855217	1.0	0.0	0.0	0.01
C	6.4286372951823285	2.2015504327699116	2.1026015246284255	1.0	0.0	0.0	0.01
C	1.0055904678396734	3.268552317849081	1.2204287770043092	1.0	0.0	0.0	0.01
H	0.792125453174922	2.1783663193719196	3.1211307853706565	1.0	0.0	0.0	0.01
C	1.534133596579543	0.7690515997324492	1.5984070031872457	1.0	0.0	0.0	0.01
C	6.593557066299599	2.8986543445769857	0.7620563796242261	1.0	0.0	0.0	0.01
C	6.6857786970563415	0.7047196891231067	2.1096037767775293	1.0	0.0	0.0	0.01
H	6.978195900730427	2.7213983310763723	2.9049170647970115	1.0	0.0	0.0	0.01
H	5.358272527931106	3.605285057732595	4.241025173752928	1.0	0.0	0.0	0.01
H	2.493403469212444	3.5995415350094144	4.363751059829982	1.0	0.0	0.0	0.01
H	1.6643611887961502	3.2357843320150206	0.3429481620499981	1.0	0.0	0.0	0.01
H	1.113629634259336	4.270460667335722	1.6764767587280411	1.0	0.0	0.0	0.01
H	-0.02320235922516266	3.1177950377499584	0.880664454318712	1.0	0.0	0.0	0.01
H	1.9827233268720252	0.09290312677851204	2.348993302841774	1.0	0.0	0.0	0.01
H	2.062338403267517	0.7273467164448335	0.6645123971656254	1.0	0.0	0.0	0.01
H	0.5025985182872387	0.413718045426098	1.4111538357777955	1.0	0.0	0.0	0.01
H	6.015793696294497	2.4103783427841656	-0.032448514060292664	1.0	0.0	0.0	0.01
H	7.653798448600004	2.882261313975426	0.4828164900882929	1.0	0.0	0.0	0.01
H	6.25792461715465	3.9529681387248576	0.8313621647055198	1.0	0.0	0.0	0.01
H	7.756905361992044	0.5382202889456662	1.934161642358874	1.0	0.0	0.0	0.01
H	6.126047092048241	0.1648655023189011	1.3442483682018016	1.0	0.0	0.0	0.01
H	6.413258521189174	0.29188510232779147	3.1012840407835243	1.0	0.0	0.0	0.01
N	2.8539261923853236	2.360363089877349	2.574975365025481	0.0	0.0	1.0	0.5
C	3.941043102565438	2.0217578792591118	1.884522097959839	0.0	0.0	1.0	0.5
N	5.018222349256743	2.4627363449327384	2.5322165160820624	0.0	0.0	1.0	0.5
H	3.950383012993344	1.4738404829077574	0.9424162985350872	0.0	0.0	1.0	0.5
C	4.607622640449061	3.107801117275826	3.6765270280437443	0.0	0.0	1.0	0.5
C	3.2476970723274343	3.046988611386427	3.701632221839481	0.0	0.0	1.0	0.5
C	1.4469003779088472	2.1249065931444884	2.1775345382322393	0.0	0.0	1.0	0.5
C	6.424341551102253	2.261683423789364	2.1147178273283607	0.0	0.0	1.0	0.5
C	0.9659095060280665	3.2612203714791805	1.2847488522117358	0.0	0.0	1.0	0.5
H	0.8909168390312336	2.1460925112415765	3.1268110672860807	0.0	0.0	1.0	0.5
C	1.2853198010432125	0.753744748990008	1.5398586328942288	0.0	0.0	1.0	0.5
C	6.641934346271549	2.808743578323963	0.7115359551090139	0.0	0.0	1.0	0.5
C	6.810102152568411	0.7959545899333635	2.258762041927887	0.0	0.0	1.0	0.5
H	7.005606944972983	2.862329633982811	2.82960710999845	0.0	0.0	1.0	0.5
H	5.3179719227824815	3.5476165229601744	4.373846431109589	0.0	0.0	1.0	0.5
H	2.5266206744817894	3.4267369703629513	4.423011245469628	0.0	0.0	1.0	0.5
H	1.525857021385804	3.2725386192026096	0.3361482675175418	0.0	0.0	1.0	0.5
H	1.0891430269950422	4.235302379559329	1.7809776218096165	0.0	0.0	1.0	0.5
H	-0.10064948703019416	3.120399536956455	1.0575563453879617	0.0	0.0	1.0	0.5
H	1.6658941429676428	-0.04051279384848838	2.198597753854067	0.0	0.0	1.0	0.5
H	1.800878590799186	0.694579204479183	0.5684220069334347	0.0	0.0	1.0	0.5
H	0.21659317092641528	0.5711054393213515	1.35952266739663	0.0	0.0	1.0	0.5
H	6.078986647937308	2.2265165687217956	-0.03498534175256718	0.0	0.0	1.0	0.5
H	7.709639410145859	2.7393458743339343	0.4586809613318099	0.0	0.0	1.0	0.5
H	6.335830580462771	3.863121077646533	0.6466052331742538	0.0	0.0	1.0	0.5
H	7.8788675217062725	0.6754846569346404	2.0302199552132203	0.0	0.0	1.0	0.5
H	6.2361421627374325	0.1672256223310511	1.559244725271642	0.0	0.0	1.0	0.5
H	6.631526401729744	0.4407819671632789	3.2843123283946327	0.0	0.0	1.0	0.5
