56

N	2.94402803514744	2.215386413033142	2.597878639785552	1.0	0.0	0.0	0.01
C	4.066784202725436	1.9177045274287696	1.9168333005406542	1.0	0.0	0.0	0.01
N	5.160787649129645	2.028469926391566	2.724965357709736	1.0	0.0	0.0	0.01
H	4.131253065561656	1.6522383122341404	0.9299503636259926	1.0	0.0	0.0	0.01
C	4.792181379116836	2.3325406227379757	3.8947165605512604	1.0	0.0	0.0	0.01
C	3.3273076136158797	2.487431792597151	3.81972067213546	1.0	0.0	0.0	0.01
C	1.506787928074895	2.1793347369026304	2.1272788146738346	1.0	0.0	0.0	0.01
C	6.589543505076847	1.9478199388745363	2.2046416456287403	1.0	0.0	0.0	0.01
C	1.544930522040575	2.8248299105113666	0.7484157298394367	1.0	0.0	0.0	0.01
H	1.0174364276132002	2.8143434241709167	2.876309680636273	1.0	0.0	0.0	0.01
C	1.0248867724878223	0.7354132324734515	2.1792252512014527	1.0	0.0	0.0	0.01
C	7.058351811678688	3.3553760512058175	1.8661569057128937	1.0	0.0	0.0	0.01
C	6.408502494212742	1.0073207409087797	1.0214224112708619	1.0	0.0	0.0	0.01
H	7.110106939504414	1.492579075779485	3.0444586228249864	1.0	0.0	0.0	0.01
H	5.467719308369815	2.465798126912218	4.721141245817859	1.0	0.0	0.0	0.01
H	2.6271660525342186	2.738975392106361	4.607252841360106	1.0	0.0	0.0	0.01
H	2.012480703161544	3.8273047034190557	0.8206964228144819	1.0	0.0	0.0	0.01
H	0.5061811534533932	2.9383664230641156	0.4020565338989925	1.0	0.0	0.0	0.01
H	2.0888547970521536	2.2396303200511984	0.0223164345241231	1.0	0.0	0.0	0.01
H	-0.030667056004846007	0.6913712125628029	1.8855793717281013	1.0	0.0	0.0	0.01
H	1.1370926410674902	0.31400627640099327	3.1966694108029046	1.0	0.0	0.0	0.01
H	1.6031901264136492	0.1002892776246384	1.4968327288881558	1.0	0.0	0.0	0.01
H	8.10735939062242	3.316265852157149	1.5564852924501165	1.0	0.0	0.0	0.01
H	6.937927280791173	4.053189449768562	2.7186741456542256	1.0	0.0	0.0	0.01
H	6.472143147320085	3.7502851244587387	1.0278049800458648	1.0	0.0	0.0	0.01
H	7.430886339413927	0.6785180423396292	0.7530400882542166	1.0	0.0	0.0	0.01
H	5.976654282095159	1.4579698150266813	0.14446080570920358	1.0	0.0	0.0	0.01
H	5.844441778762766	0.1156738910586794	1.3386123071322473	1.0	0.0	0.0	0.01
N	2.9478709154099993	2.2454681700518635	2.5779637003866256	0.0	0.0	1.0	0.5
C	4.026735398752822	2.014712763661036	1.8319027344978918	0.0	0.0	1.0	0.5
N	5.106515591671974	2.053725794307315	2.610353048121228	0.0	0.0	1.0	0.5
H	4.025763563643726	1.8245852559656164	0.7597831363820613	0.0	0.0	1.0	0.5
C	4.705779049518258	2.320132983165906	3.90105675217462	0.0	0.0	1.0	0.5
C	3.3500638776924836	2.4360421981070237	3.88142723004224	0.0	0.0	1.0	0.5
C	1.5379838277370372	2.217521438001521	2.127127170594774	0.0	0.0	1.0	0.5
C	6.5176899938467745	1.9285319474700495	2.1794533891857815	0.0	0.0	1.0	0.5
C	1.4109158697902053	2.7549501343097598	0.7105616596710294	0.0	0.0	1.0	0.5
H	1.0186066071124618	2.8998373735460508	2.8167826798283944	0.0	0.0	1.0	0.5
C	0.9742021719718341	0.8109448878863323	2.2840070659756133	0.0	0.0	1.0	0.5
C	7.10482219492647	3.312237094757935	1.933377619459617	0.0	0.0	1.0	0.5
C	6.641602138101462	1.0081939655461014	0.9762202421659025	0.0	0.0	1.0	0.5
H	7.023842826354256	1.4631539626024423	3.03864643043217	0.0	0.0	1.0	0.5
H	5.4199508426573395	2.408041723766821	4.717815997749759	0.0	0.0	1.0	0.5
H	2.636404806301041	2.637843482953375	4.678159792284467	0.0	0.0	1.0	0.5
H	1.877717042009842	3.7462029139821533	0.6133947140201168	0.0	0.0	1.0	0.5
H	0.34427491868546856	2.848508498967444	0.4626420239219349	0.0	0.0	1.0	0.5
H	1.8631319802398836	2.070334080853928	-0.024011410757179608	0.0	0.0	1.0	0.5
H	-0.0905941745581158	0.8099273325356209	2.0094574465703428	0.0	0.0	1.0	0.5
H	1.0639796104354091	0.45906646690564323	3.3225314470688336	0.0	0.0	1.0	0.5
H	1.5054814250855517	0.10763384137195908	1.6230038205616522	0.0	0.0	1.0	0.5
H	8.173333397103136	3.217986087576886	1.691105752503633	0.0	0.0	1.0	0.5
H	7.007712253577264	3.9511109460192877	2.8236715262334653	0.0	0.0	1.0	0.5
H	6.597017849697741	3.802338141770707	1.087695079643519	0.0	0.0	1.0	0.5
H	7.7080736136705115	0.8366745239826485	0.7733651272381918	0.0	0.0	1.0	0.5
H	6.2002674324981175	1.4583541094199513	0.07299882778209543	0.0	0.0	1.0	0.5
H	6.165173267106079	0.0343724927151694	1.1631035614789418	0.0	0.0	1.0	0.5
