54

N	2.678556094380984	2.157895850236895	2.1606839210015356	1.0	0.0	0.0	0.01
C	3.7346830442356325	2.147403394426646	1.3293959313482744	1.0	0.0	0.0	0.01
N	4.79078716978546	2.1594119040338176	2.160679913512108	1.0	0.0	0.0	0.01
C	4.41893785802223	2.177777509597406	3.4855705053510913	1.0	0.0	0.0	0.01
C	3.0503686752955055	2.1770063909813384	3.4855617221139488	1.0	0.0	0.0	0.01
C	1.281712229648151	2.1512704313651607	1.6711984937356623	1.0	0.0	0.0	0.01
C	6.187635847049178	2.153279176868199	1.671186761077135	1.0	0.0	0.0	0.01
C	1.0132920913248704	3.421006110815295	0.8669814938550701	1.0	0.0	0.0	0.01
H	0.6718336117110566	2.1585442784919446	2.585806734576243	1.0	0.0	0.0	0.01
C	1.0164005749346379	0.867036600685633	0.8890943920301366	1.0	0.0	0.0	0.01
H	6.797508433208873	2.1667966909280847	2.585732437327827	1.0	0.0	0.0	0.01
C	6.453734531722505	3.418958454728258	0.8597179156868029	1.0	0.0	0.0	0.01
C	6.455291786367545	0.8651420674453255	0.896403640288919	1.0	0.0	0.0	0.01
H	5.165130529291096	2.189404096654714	4.280876881465603	1.0	0.0	0.0	0.01
H	2.304186613884137	2.1877091865954785	4.280891981465033	1.0	0.0	0.0	0.01
H	-0.021183776895968048	0.8353632374148371	0.5288713980696157	1.0	0.0	0.0	0.01
H	1.1944244576712382	-0.03330548335214444	1.4958944967315717	1.0	0.0	0.0	0.01
H	1.685566375221413	0.827874464437939	0.012242817660792911	1.0	0.0	0.0	0.01
H	1.6818120837126171	3.4465066098508697	-0.010860964720397454	1.0	0.0	0.0	0.01
H	1.1893674970371628	4.332246992059192	1.4579176320779537	1.0	0.0	0.0	0.01
H	-0.02451626722902246	3.4439685356821226	0.5066920754414241	1.0	0.0	0.0	0.01
H	6.278938513618132	-0.032144922369034976	1.5082306176307478	1.0	0.0	0.0	0.01
H	7.492978282744716	0.8333351082017286	0.5364539601409068	1.0	0.0	0.0	0.01
H	5.786404083865553	0.8197879051356992	0.019645929777350732	1.0	0.0	0.0	0.01
H	6.27558741372098	4.33321496720661	1.4453130450130818	1.0	0.0	0.0	0.01
H	5.785274345756495	3.4379922567897516	-0.018350480225216365	1.0	0.0	0.0	0.01
H	7.49157544026951	3.44200758641595	0.49957282457712837	1.0	0.0	0.0	0.01
N	2.67327183703268	2.1581511730185956	2.107559061482662	0.0	0.0	1.0	0.5
C	3.734678319955761	2.143468169891545	1.2613354415948528	0.0	0.0	1.0	0.5
N	4.796075833514539	2.1584649367118782	2.1075658432734867	0.0	0.0	1.0	0.5
C	4.412738054958657	2.183200497742043	3.43835872011472	0.0	0.0	1.0	0.5
C	3.0565930588543644	2.182858677551777	3.4383572205679824	0.0	0.0	1.0	0.5
C	1.2711930936356208	2.149997135907076	1.668709539346759	0.0	0.0	1.0	0.5
C	6.198158088534239	2.1504626117010592	1.6687283536690751	0.0	0.0	1.0	0.5
C	0.9446787019455618	3.40874590404814	0.8746983339027627	0.0	0.0	1.0	0.5
H	0.6769736687238423	2.1571305296384757	2.59666132575454	0.0	0.0	1.0	0.5
C	0.9513872516069277	0.8749329649890207	0.8982904949745589	0.0	0.0	1.0	0.5
H	6.792371654571436	2.1583788691704577	2.59667857819679	0.0	0.0	1.0	0.5
C	6.5243417013259375	3.408852994436431	0.8740203882715452	0.0	0.0	1.0	0.5
C	6.5183142503625815	0.8750489057771416	0.8990265446606999	0.0	0.0	1.0	0.5
H	5.129625564349162	2.1993952650638744	4.2578889958240875	0.0	0.0	1.0	0.5
H	2.339694572577859	2.1986737189583194	4.25788496811761	0.0	0.0	1.0	0.5
H	-0.11577136604885618	0.8506097107454336	0.6302920843971854	0.0	0.0	1.0	0.5
H	1.1781684287280876	-0.016549828796101007	1.5027189306024804	0.0	0.0	1.0	0.5
H	1.5452621561304336	0.82661356556579	-0.02736332149117393	0.0	0.0	1.0	0.5
H	1.539523636300327	3.443593515987911	-0.051012421765859184	0.0	0.0	1.0	0.5
H	1.1654689442633837	4.312348052081086	1.4631880718672272	0.0	0.0	1.0	0.5
H	-0.1222283550833918	3.422143654051265	0.6048979508309962	0.0	0.0	1.0	0.5
H	6.291825424230432	-0.01617317601398094	1.5039468135955247	0.0	0.0	1.0	0.5
H	7.585456631156756	0.8508735494097452	0.630946919986517	0.0	0.0	1.0	0.5
H	5.92436716219425	0.826093649688328	-0.026549709593178816	0.0	0.0	1.0	0.5
H	6.303261940912698	4.312701988160779	1.4620249637300275	0.0	0.0	1.0	0.5
H	5.92958464284774	3.443081729058564	-0.05176780582823448	0.0	0.0	1.0	0.5
H	7.591272642773659	3.4223906367830548	0.6043197909266863	0.0	0.0	1.0	0.5
