56

N	3.3163315439051066	1.7345367160491758	1.8472240471178043	1.0	0.0	0.0	0.01
C	4.4117126628579175	2.4662042510598665	2.1570921318340037	1.0	0.0	0.0	0.01
N	5.505666995665832	1.8563232929435995	1.6778860585581092	1.0	0.0	0.0	0.01
H	4.424398788875861	3.3324489164261513	2.70022145934737	1.0	0.0	0.0	0.01
C	5.090715524677161	0.7693343682601458	1.0563968800242636	1.0	0.0	0.0	0.01
C	3.6260261207079685	0.7200177140410119	1.1690846774740122	1.0	0.0	0.0	0.01
C	1.9338608208721546	2.2003729582216662	2.3215772328045277	1.0	0.0	0.0	0.01
C	6.952330841536604	2.2748830996764213	1.7638925223529531	1.0	0.0	0.0	0.01
C	2.1461857844660637	3.716707715659402	2.313555759241583	1.0	0.0	0.0	0.01
H	1.8557014646256909	1.7811174593629686	3.3231316935853576	1.0	0.0	0.0	0.01
C	0.9485388874405957	1.5891850820363396	1.3350705231887519	1.0	0.0	0.0	0.01
C	7.318534495868293	2.305134214054064	3.2375023550222606	1.0	0.0	0.0	0.01
C	7.093778610133461	3.597581504782674	1.0245692610644392	1.0	0.0	0.0	0.01
H	7.453217147720858	1.447859419937026	1.2323210224374457	1.0	0.0	0.0	0.01
H	5.776549794212435	0.08284740469508121	0.5702667543560378	1.0	0.0	0.0	0.01
H	2.940085878939023	0.002306960567661709	0.7974639550091397	1.0	0.0	0.0	0.01
H	2.851435821744429	4.12143565635671	3.027895429577864	1.0	0.0	0.0	0.01
H	1.1541257619185687	4.143792406155438	2.57124958631856	1.0	0.0	0.0	0.01
H	2.356133131547648	4.055707862984961	1.290852262739772	1.0	0.0	0.0	0.01
H	0.9062844540157071	0.496815315142355	1.3684314498923333	1.0	0.0	0.0	0.01
H	1.2065539656491013	1.910212172695545	0.3155084498404428	1.0	0.0	0.0	0.01
H	-0.05705473993916336	1.9761900394149776	1.575851160220008	1.0	0.0	0.0	0.01
H	7.040686210551999	1.3407420786798103	3.708275348449237	1.0	0.0	0.0	0.01
H	6.823011394759023	3.111031753044198	3.7839440457972695	1.0	0.0	0.0	0.01
H	8.403033890574685	2.445456566161235	3.3253127696845923	1.0	0.0	0.0	0.01
H	6.670042349586761	3.501521287970521	0.0048756653059398095	1.0	0.0	0.0	0.01
H	8.161003551123834	3.837687902056838	0.9468249164007896	1.0	0.0	0.0	0.01
H	6.590528156978559	4.428327608173336	1.5258266624928425	1.0	0.0	0.0	0.01
N	3.324940703249853	1.7795473954370453	2.0156887823970484	0.0	0.0	1.0	0.5
C	4.385360354301053	2.5677847970704	1.8466828595341311	0.0	0.0	1.0	0.5
N	5.473853825240454	1.8090137649561386	1.7309573835033396	0.0	0.0	1.0	0.5
H	4.36617902919391	3.655149443564434	1.805070629564582	0.0	0.0	1.0	0.5
C	5.097494151305945	0.4872839574771277	1.8272386369196045	0.0	0.0	1.0	0.5
C	3.7492821149123854	0.468975013766888	2.005321895079221	0.0	0.0	1.0	0.5
C	1.9065302788398655	2.1913665583492743	2.1298077616483138	0.0	0.0	1.0	0.5
C	6.874949052987583	2.2665581650961584	1.5855718539526722	0.0	0.0	1.0	0.5
C	1.7866960761179809	3.614124081420414	2.648882883629213	0.0	0.0	1.0	0.5
H	1.4829618624728607	1.5020618211764356	2.876162797261011	0.0	0.0	1.0	0.5
C	1.2042449462209968	1.986706932123488	0.7934306892261904	0.0	0.0	1.0	0.5
C	7.592570466869853	2.1596104303225077	2.9251821680064998	0.0	0.0	1.0	0.5
C	6.93552457221443	3.664868156613254	0.994736521413345	0.0	0.0	1.0	0.5
H	7.322815122170633	1.5574433015359541	0.8727978676277526	0.0	0.0	1.0	0.5
H	5.820909025013881	-0.32345439649636365	1.7623014565413107	0.0	0.0	1.0	0.5
H	3.0545340145931554	-0.36063008942941144	2.123236121682625	0.0	0.0	1.0	0.5
H	2.302754867862537	3.7387073064221443	3.612324210796216	0.0	0.0	1.0	0.5
H	0.7219705823927609	3.8422617251150903	2.7972051567341882	0.0	0.0	1.0	0.5
H	2.183025258743558	4.345584391610725	1.9272359430816646	0.0	0.0	1.0	0.5
H	1.2785080672747884	0.9417947784711276	0.45727647991900966	0.0	0.0	1.0	0.5
H	1.6435957267187273	2.63953602204844	0.022550733261065048	0.0	0.0	1.0	0.5
H	0.13926602831775803	2.2393258005100654	0.8984608908195062	0.0	0.0	1.0	0.5
H	7.507756268501597	1.1468754542528368	3.3464273407186784	0.0	0.0	1.0	0.5
H	7.174892644798935	2.8797097442838613	3.646501362443666	0.0	0.0	1.0	0.5
H	8.659736505981042	2.384792543309641	2.785232848810633	0.0	0.0	1.0	0.5
H	6.389435921583335	3.725109984084896	0.041616918640541734	0.0	0.0	1.0	0.5
H	7.9875663999001265	3.9186250332332757	0.8037962196413251	0.0	0.0	1.0	0.5
H	6.532065443236206	4.417049610283328	1.6904056672843595	0.0	0.0	1.0	0.5
