68

N	2.8249168460875613	2.2940377986167073	2.1367036565876627	1.0	0.0	0.0	0.01
C	3.8653982396677646	1.4485901509949684	2.381401750453932	1.0	0.0	0.0	0.01
N	5.037001573671112	2.0581890126424076	2.1684458453473594	1.0	0.0	0.0	0.01
H	3.7953693276944205	0.43245389674976803	2.6838237326691736	1.0	0.0	0.0	0.01
C	4.862789306935048	3.2862228035978474	1.8445862617653939	1.0	0.0	0.0	0.01
C	3.292113513056505	3.4469214057447677	1.8350737667414894	1.0	0.0	0.0	0.01
C	1.3599198914495647	1.8510081818644586	2.155262223975459	1.0	0.0	0.0	0.01
C	6.385966999045163	1.3053822418599175	2.3275470617104475	1.0	0.0	0.0	0.01
C	1.0216522880563712	1.23813569430907	0.8117394230846161	1.0	0.0	0.0	0.01
H	0.8547503534891678	2.805494738368144	2.3068187844838812	1.0	0.0	0.0	0.01
C	1.2079982874539297	0.9458189627648822	3.361859967298344	1.0	0.0	0.0	0.01
C	7.265645474228639	2.1023506256533704	3.282255583854166	1.0	0.0	0.0	0.01
C	6.951630842483039	1.0929468482892917	0.9279902951232363	1.0	0.0	0.0	0.01
H	6.029901631011941	0.35777025388840944	2.7762436124387135	1.0	0.0	0.0	0.01
C	5.780932376567217	4.400772351959614	1.6381985098879523	1.0	0.0	0.0	0.01
C	2.6170324010817057	4.695073236482934	1.532096630921353	1.0	0.0	0.0	0.01
H	-0.049524327966792306	1.0071049428294896	0.766388531436878	1.0	0.0	0.0	0.01
H	1.5777532258937093	0.3053201899130311	0.6520093736877021	1.0	0.0	0.0	0.01
H	1.2750559602472888	1.919486154544638	-0.029871467783483385	1.0	0.0	0.0	0.01
H	1.5366266089155978	1.466007654642323	4.281587458378919	1.0	0.0	0.0	0.01
H	1.7481379153339753	0.01944136452374728	3.2665361484373046	1.0	0.0	0.0	0.01
H	0.13334878880187465	0.7116249492225304	3.4666125590755885	1.0	0.0	0.0	0.01
H	8.145836263010882	1.4918447765877405	3.537465283387708	1.0	0.0	0.0	0.01
H	6.693756602722541	2.295428328548598	4.216319428115783	1.0	0.0	0.0	0.01
H	7.607965421644834	3.040164546450895	2.907070806903117	1.0	0.0	0.0	0.01
H	6.202118304273648	0.5988193507228363	0.2824145118142337	1.0	0.0	0.0	0.01
H	7.845190178753984	0.4541699265029231	0.9910152980505511	1.0	0.0	0.0	0.01
H	7.232956498004845	2.0201785450992134	0.4463382396350785	1.0	0.0	0.0	0.01
H	3.396139088002002	5.366627615562468	1.2574260465048477	1.0	0.0	0.0	0.01
H	2.1188025403963353	5.095800296650798	2.421955638511908	1.0	0.0	0.0	0.01
H	1.8821361782078023	4.603454097833206	0.7236386632822464	1.0	0.0	0.0	0.01
H	6.700916150010553	4.121289076782698	1.1460243021901502	1.0	0.0	0.0	0.01
H	6.045642497164585	4.825023618035308	2.6167684215065488	1.0	0.0	0.0	0.01
H	5.252917835701018	5.164635056627008	1.0858237668257447	1.0	0.0	0.0	0.01
N	2.8867449716017517	2.234692068969191	2.1641297325128597	0.0	0.0	1.0	0.5
C	3.895934056223111	1.400935354528173	2.388633569813295	0.0	0.0	1.0	0.5
N	5.046984640135318	2.042225163598831	2.208668583420148	0.0	0.0	1.0	0.5
H	3.8068084903994412	0.35209230978818806	2.669635123344888	0.0	0.0	1.0	0.5
C	4.77106120188577	3.3549206762304626	1.8426257936696537	0.0	0.0	1.0	0.5
C	3.4048792637947747	3.4713668477784227	1.8130079324579893	0.0	0.0	1.0	0.5
C	1.451902153540889	1.881206214178864	2.1988148742353864	0.0	0.0	1.0	0.5
C	6.355949236294373	1.3598952768308634	2.3410007549105876	0.0	0.0	1.0	0.5
C	1.0216360675598049	1.3349096836499477	0.8428958640623645	0.0	0.0	1.0	0.5
H	0.9317233240496301	2.8307124966559734	2.3908251323639664	0.0	0.0	1.0	0.5
C	1.155918198828362	0.9288695824390232	3.3472923994665713	0.0	0.0	1.0	0.5
C	7.272026174256607	2.0702732818382286	3.3285509344541344	0.0	0.0	1.0	0.5
C	6.9877253095034835	1.1273385328632735	0.974038236459672	0.0	0.0	1.0	0.5
H	6.094185924196511	0.3797953974877528	2.76707816025283	0.0	0.0	1.0	0.5
C	5.800522540758355	4.404344321705581	1.5840190052023444	0.0	0.0	1.0	0.5
C	2.5401167423643773	4.643465298792883	1.498289486915233	0.0	0.0	1.0	0.5
H	-0.06009186489997553	1.1370130431205727	0.8510764294141182	0.0	0.0	1.0	0.5
H	1.54667839357217	0.39157731116413763	0.623514739268505	0.0	0.0	1.0	0.5
H	1.2364340403051028	2.0525859081172317	0.036799923225981024	0.0	0.0	1.0	0.5
H	1.5133697437681697	1.3370153103208042	4.304187468440697	0.0	0.0	1.0	0.5
H	1.6151176166317667	-0.05885266852194615	3.18518773847371	0.0	0.0	1.0	0.5
H	0.06877143047162093	0.7820386779047552	3.4166570161536187	0.0	0.0	1.0	0.5
H	8.123542005801541	1.4114168862500818	3.552237451461609	0.0	0.0	1.0	0.5
H	6.747276499709768	2.2843067444425573	4.2713701412120315	0.0	0.0	1.0	0.5
H	7.674166027570603	3.0087450835375855	2.9214877990921124	0.0	0.0	1.0	0.5
H	6.2970388612314325	0.5864641093745071	0.3104223781937363	0.0	0.0	1.0	0.5
H	7.895197662945646	0.5185322089301643	1.0984085722805412	0.0	0.0	1.0	0.5
H	7.278838056995356	2.070463419761486	0.48819210868878393	0.0	0.0	1.0	0.5
H	3.1608451453375466	5.498588324452383	1.2032722965782638	0.0	0.0	1.0	0.5
H	1.9423921178841783	4.943596642311531	2.3728325674994286	0.0	0.0	1.0	0.5
H	1.848416526174319	4.4202470659285975	0.6717176004682215	0.0	0.0	1.0	0.5
H	6.594106300158799	4.047170088637978	0.9136642867894522	0.0	0.0	1.0	0.5
H	6.268166515487984	4.749309811319776	2.5184598934640436	0.0	0.0	1.0	0.5
H	5.324411706559237	5.27032822047812	1.1065761220572141	0.0	0.0	1.0	0.5
