66

N	3.35599540373649	2.41501057362689	2.410709259122956	1.0	0.0	0.0	0.01
C	4.4303327617826085	1.9001121598228137	1.7486541122386523	1.0	0.0	0.0	0.01
N	5.523298132221915	2.4214780125204745	2.3684518848306886	1.0	0.0	0.0	0.01
C	5.144841611152189	3.1418545111014766	3.5169576296940743	1.0	0.0	0.0	0.01
C	3.7733473208837234	3.1338922251835717	3.542769774515548	1.0	0.0	0.0	0.01
C	1.934339339021824	2.1031828417616056	2.0120913853628504	1.0	0.0	0.0	0.01
C	6.929129965082002	2.118479943995925	1.912943644965532	1.0	0.0	0.0	0.01
C	1.774374170594944	2.3128426828745607	0.49073592253982123	1.0	0.0	0.0	0.01
C	0.9476938829691115	3.018049971552636	2.7529576958657693	1.0	0.0	0.0	0.01
C	1.7041469498868385	0.6413164836139368	2.418975570541008	1.0	0.0	0.0	0.01
C	7.000181830180032	2.176984090811471	0.370586294531012	1.0	0.0	0.0	0.01
C	7.229493340087989	0.7121200959228734	2.4444435168132013	1.0	0.0	0.0	0.01
C	7.910104323826249	3.1404672987401927	2.5051662334871097	1.0	0.0	0.0	0.01
H	5.8379259378404775	3.607814100676745	4.218207460460587	1.0	0.0	0.0	0.01
H	3.1009514624635064	3.5919145777642183	4.270244234632731	1.0	0.0	0.0	0.01
H	1.8390832122563712	0.49587254918239415	3.5076236386594237	1.0	0.0	0.0	0.01
H	2.3944774720286865	-0.032783531609887374	1.8795860956384816	1.0	0.0	0.0	0.01
H	0.678973636715977	0.3189814967904511	2.174182646010183	1.0	0.0	0.0	0.01
H	1.917762126712681	3.370546691685456	0.20525671371241977	1.0	0.0	0.0	0.01
H	0.7659041245649286	2.016082650699321	0.15573704087324935	1.0	0.0	0.0	0.01
H	2.4989111655761778	1.6951057105026457	-0.06899690569017893	1.0	0.0	0.0	0.01
H	7.603473027697605	4.166023453423388	2.2423233503624282	1.0	0.0	0.0	0.01
H	8.926405423545551	2.9914612997932832	2.1110452703556275	1.0	0.0	0.0	0.01
H	7.96441200443609	3.0517328662965437	3.6023965141053034	1.0	0.0	0.0	0.01
H	7.16056827055812	0.6685903989748946	3.5483320043313826	1.0	0.0	0.0	0.01
H	8.251607948654035	0.397566258057525	2.1752551991167386	1.0	0.0	0.0	0.01
H	6.536305169227419	-0.0315408358514	2.0107990632951656	1.0	0.0	0.0	0.01
H	1.1866387771810738	4.078904705623008	2.567722171221571	1.0	0.0	0.0	0.01
H	0.9716119063730405	2.832702555616658	3.8395300716263194	1.0	0.0	0.0	0.01
H	-0.08493886187433636	2.8478007684715863	2.4142106219052986	1.0	0.0	0.0	0.01
H	7.998997286333029	1.8790460281629437	0.009704292262784731	1.0	0.0	0.0	0.01
H	6.803704454283893	3.196042850497386	-0.008070351556807286	1.0	0.0	0.0	0.01
H	6.26998341227698	1.4842599251609019	-0.08499551235136264	1.0	0.0	0.0	0.01
N	3.361102204068162	2.3751597421080892	2.3799288153361307	0.0	0.0	1.0	0.5
C	4.403245758160796	1.9593595553193688	1.6103948680806255	0.0	0.0	1.0	0.5
N	5.493943207972431	2.3045537214527023	2.3401924727409247	0.0	0.0	1.0	0.5
C	5.144603017451409	2.918126672072051	3.5355850672206643	0.0	0.0	1.0	0.5
C	3.791235155381497	2.9638060439968656	3.5597165478190336	0.0	0.0	1.0	0.5
C	1.9462623176408482	2.1905767456887695	1.9635421185491015	0.0	0.0	1.0	0.5
C	6.902970986804887	2.0345363863734187	1.9641487616152675	0.0	0.0	1.0	0.5
C	1.7131597278660484	2.9669871394342366	0.6651710460427505	0.0	0.0	1.0	0.5
C	1.006133927985395	2.7148325909671254	3.048082812264797	0.0	0.0	1.0	0.5
C	1.6931303936261335	0.6962387422405585	1.748164066740138	0.0	0.0	1.0	0.5
C	6.964828377714395	1.420205492710028	0.5683752582148731	0.0	0.0	1.0	0.5
C	7.499633676084082	1.056789699321913	2.9825735185035347	0.0	0.0	1.0	0.5
C	7.679450923779578	3.355208555363209	1.974254535340448	0.0	0.0	1.0	0.5
H	5.86955477255073	3.269454635501172	4.267430317392558	0.0	0.0	1.0	0.5
H	3.1249042800396305	3.3659251192783737	4.318115370508579	0.0	0.0	1.0	0.5
H	1.863513036100775	0.13696763885747432	2.6819460282782837	0.0	0.0	1.0	0.5
H	2.3700027197528386	0.2990968625260346	0.978654499537339	0.0	0.0	1.0	0.5
H	0.6526488734932272	0.5305360287117658	1.4288443405062081	0.0	0.0	1.0	0.5
H	1.8840312921365179	4.043765358625559	0.8232116828673632	0.0	0.0	1.0	0.5
H	0.6771969233763535	2.8264938852669492	0.32016511131795133	0.0	0.0	1.0	0.5
H	2.4000371454843186	2.618755547445309	-0.11951976135460551	0.0	0.0	1.0	0.5
H	7.24436421667959	4.06722495379924	1.2554998566968423	0.0	0.0	1.0	0.5
H	8.727277358014351	3.1729664652171925	1.691249564080132	0.0	0.0	1.0	0.5
H	7.676406277478311	3.8219860801221714	2.9709357082938643	0.0	0.0	1.0	0.5
H	7.491189113574782	1.4786331268049406	3.9995309747441583	0.0	0.0	1.0	0.5
H	8.543632115003799	0.8281006643855016	2.7193400869279767	0.0	0.0	1.0	0.5
H	6.928387630189393	0.11527118950826498	2.9914101076062627	0.0	0.0	1.0	0.5
H	1.1477180396654392	3.7920196239161563	3.2260949265779453	0.0	0.0	1.0	0.5
H	1.142237258733017	2.177867272283888	3.999609164647543	0.0	0.0	1.0	0.5
H	-0.03261220284356181	2.561615852799555	2.720743687534553	0.0	0.0	1.0	0.5
H	8.01892451287318	1.2297045061941447	0.31502256317536736	0.0	0.0	1.0	0.5
H	6.537901050795857	2.0978725956090445	-0.18483614530451487	0.0	0.0	1.0	0.5
H	6.413022900643031	0.471276917545411	0.5219585709774608	0.0	0.0	1.0	0.5
