82

N	5.053944077817198	3.66510629275898	1.4420926879534186	1.0	0.0	0.0	0.01
C	6.110227662458599	3.267614291275035	0.6949786998880833	1.0	0.0	0.0	0.01
N	7.191836841739108	3.5656508015203245	1.449632816737036	1.0	0.0	0.0	0.01
C	6.808610789662207	3.9218619534232086	2.757915781566451	1.0	0.0	0.0	0.01
C	5.457546206730776	3.986719523502927	2.7531626293372007	1.0	0.0	0.0	0.01
C	3.698436858306648	3.6238768637572236	1.001486335233614	1.0	0.0	0.0	0.01
C	8.54244005411688	3.395154335875072	1.0231573548489965	1.0	0.0	0.0	0.01
C	2.97494417346537	4.8504804228370055	0.9173738394221723	1.0	0.0	0.0	0.01
C	3.1143784257477574	2.3571536537389517	0.6894522700387495	1.0	0.0	0.0	0.01
C	9.017089208377342	2.072855814581648	0.7685985341272396	1.0	0.0	0.0	0.01
C	9.36812404911668	4.551852967829828	0.9086059859978195	1.0	0.0	0.0	0.01
H	7.516227498733558	4.108711235229082	3.5806618701981203	1.0	0.0	0.0	0.01
H	4.766584221087522	4.2408846836679635	3.57291884114257	1.0	0.0	0.0	0.01
C	1.743001556640051	2.3533951120669134	0.3315426837597739	1.0	0.0	0.0	0.01
C	1.0125290784746934	3.5366472025137043	0.2665856907333765	1.0	0.0	0.0	0.01
C	1.6138383062629007	4.764074976718263	0.536639023412665	1.0	0.0	0.0	0.01
C	10.383576442440111	1.9390541812611304	0.4186689876757917	1.0	0.0	0.0	0.01
C	11.212557203883039	3.0531983799963998	0.31700505658513745	1.0	0.0	0.0	0.01
C	10.719168193095822	4.3361866944571625	0.5429691522183357	1.0	0.0	0.0	0.01
C	3.640440267346716	6.152918742915899	1.2171884552098922	1.0	0.0	0.0	0.01
C	3.939394834324901	1.1147986913264847	0.7372798696476335	1.0	0.0	0.0	0.01
H	1.256251493687961	1.4048114472839215	0.09923877094025939	1.0	0.0	0.0	0.01
H	-0.04117658606653115	3.5019779770405206	-0.006199289085405484	1.0	0.0	0.0	0.01
H	1.0205513396455275	5.677351833792118	0.46082973778326214	1.0	0.0	0.0	0.01
C	8.08620866970148	0.9085849533179692	0.8729904931473955	1.0	0.0	0.0	0.01
H	11.389187255646487	5.191908384152438	0.4437248926594871	1.0	0.0	0.0	0.01
C	8.807143143044293	5.912162555246964	1.1617029511071375	1.0	0.0	0.0	0.01
H	10.788204582623617	0.9451184523571741	0.22240308745464757	1.0	0.0	0.0	0.01
H	12.260236850566097	2.9190432856243613	0.05228917137857979	1.0	0.0	0.0	0.01
H	4.666436903405738	1.1026944853869112	-0.09221654806671634	1.0	0.0	0.0	0.01
H	3.298698989122138	0.22737078973553984	0.632464769550283	1.0	0.0	0.0	0.01
H	4.502022443297813	1.0382819620044252	1.677252426935963	1.0	0.0	0.0	0.01
H	3.0861415326924178	6.9745057573185925	0.7420484405536604	1.0	0.0	0.0	0.01
H	4.679647144636136	6.160750502260848	0.8647124926622275	1.0	0.0	0.0	0.01
H	3.6652331639265094	6.369210963810323	2.2960604341501134	1.0	0.0	0.0	0.01
H	7.791520526960067	6.009327994025722	0.7559166217268135	1.0	0.0	0.0	0.01
H	9.456088792299687	6.674823749481849	0.7076787993213949	1.0	0.0	0.0	0.01
H	8.744357418842675	6.1451860224371195	2.235528450845366	1.0	0.0	0.0	0.01
H	7.553402373602796	0.8990606906100977	1.8319566348357597	1.0	0.0	0.0	0.01
H	8.645615615896471	-0.033994055577248286	0.7724368381316176	1.0	0.0	0.0	0.01
H	7.33493087559569	0.9409770400543908	0.06617896621185165	1.0	0.0	0.0	0.01
N	5.05775226526878	3.5539637681376166	1.4604552905569528	0.0	0.0	1.0	0.5
C	6.122528518552528	3.5111347301460802	0.6144398811602079	0.0	0.0	1.0	0.5
N	7.173478677430499	3.449808709986923	1.4764102986083958	0.0	0.0	1.0	0.5
C	6.7807234801365555	3.452950732973082	2.809982203919522	0.0	0.0	1.0	0.5
C	5.428899092450466	3.5206057388816157	2.7998883484299926	0.0	0.0	1.0	0.5
C	3.6989733401204545	3.628366542432762	1.0120988287724222	0.0	0.0	1.0	0.5
C	8.539113329285765	3.3867997083049857	1.0472412350399842	0.0	0.0	1.0	0.5
C	3.0985715467250405	4.889995211331909	0.887728878541927	0.0	0.0	1.0	0.5
C	3.019857792373373	2.4382542445109445	0.7132575106511992	0.0	0.0	1.0	0.5
C	9.137006510753118	2.128372629586732	0.8852038763090847	0.0	0.0	1.0	0.5
C	9.2270438368299	4.584597272782626	0.8044521488468428	0.0	0.0	1.0	0.5
H	7.493397005816881	3.4077648667838165	3.631943957552317	0.0	0.0	1.0	0.5
H	4.702899444294153	3.5477848196682413	3.61089125043559	0.0	0.0	1.0	0.5
C	1.6943974096391958	2.5336198154836196	0.27650266943679513	0.0	0.0	1.0	0.5
C	1.0748515235742238	3.7747805941425794	0.14625201491386552	0.0	0.0	1.0	0.5
C	1.7718609676857167	4.942757248207081	0.44854890359894184	0.0	0.0	1.0	0.5
C	10.470570202295175	2.0870782466340057	0.46583881998432153	0.0	0.0	1.0	0.5
C	11.176349446902158	3.2628763436303787	0.21924277623928135	0.0	0.0	1.0	0.5
C	10.559156305409878	4.500746691995887	0.386231014209342	0.0	0.0	1.0	0.5
C	3.86773672073672	6.144116016675918	1.210379829423642	0.0	0.0	1.0	0.5
C	3.7059795961167192	1.1039391700372456	0.8450121341041257	0.0	0.0	1.0	0.5
H	1.1443876783353586	1.6182588350825873	0.037563666914517735	0.0	0.0	1.0	0.5
H	0.037187700200099094	3.832391680726773	-0.19496136064778913	0.0	0.0	1.0	0.5
H	1.2837365391941056	5.916506180233638	0.3435904004661572	0.0	0.0	1.0	0.5
C	8.358599802834558	0.8661164519008158	1.1473144343683275	0.0	0.0	1.0	0.5
H	11.115679932861497	5.422448319038386	0.19077782100620855	0.0	0.0	1.0	0.5
C	8.542437274348174	5.914768856597319	0.9789461065727973	0.0	0.0	1.0	0.5
H	10.957620401073367	1.116246451617858	0.3326405488061803	0.0	0.0	1.0	0.5
H	12.21934457172457	3.2136324792458337	-0.1067426688608879	0.0	0.0	1.0	0.5
H	4.523263601028919	1.0104001718899602	0.1116396032528022	0.0	0.0	1.0	0.5
H	2.99612287566325	0.2824266424217923	0.6763719291145942	0.0	0.0	1.0	0.5
H	4.155428130311695	0.9778322730494917	1.8425261661899437	0.0	0.0	1.0	0.5
H	3.261915770730232	7.03731276161769	1.0050344314531565	0.0	0.0	1.0	0.5
H	4.792559895774181	6.203465391812488	0.6147414072541798	0.0	0.0	1.0	0.5
H	4.1671766480352375	6.167423473370498	2.270457790059975	0.0	0.0	1.0	0.5
H	7.704099389962239	6.019742741276498	0.2716278215902357	0.0	0.0	1.0	0.5
H	9.245629423855863	6.741424430687445	0.8077850494030074	0.0	0.0	1.0	0.5
H	8.121626548170784	6.020189908104583	1.9914746189635135	0.0	0.0	1.0	0.5
H	8.017140073341698	0.8174326976215589	2.1936693552096918	0.0	0.0	1.0	0.5
H	8.972617418124251	-0.021875962465262244	0.944086542086631	0.0	0.0	1.0	0.5
H	7.457877790987551	0.8208947254532535	0.5143691740397741	0.0	0.0	1.0	0.5
