60

N	4.992023471195923	2.301384305666675	2.3462676540704988	1.0	0.0	0.0	0.01
C	6.10228552077893	1.5574845109568392	2.1022217276035633	1.0	0.0	0.0	0.01
N	7.1791968274231674	2.2978396158154113	2.331198647513521	1.0	0.0	0.0	0.01
H	6.069789963822119	0.5102260980947415	1.7756899414762022	1.0	0.0	0.0	0.01
C	6.74761823102212	3.580524386753365	2.707502224132047	1.0	0.0	0.0	0.01
C	5.386611534660281	3.5963542726998448	2.730458216099452	1.0	0.0	0.0	0.01
C	3.6177220167793886	1.8842133820299023	2.2365637371255347	1.0	0.0	0.0	0.01
C	8.567909000026942	1.897758010177965	2.1525743664126606	1.0	0.0	0.0	0.01
C	2.9482954123752565	2.041499439388218	1.033975395825604	1.0	0.0	0.0	0.01
C	2.998411792831672	1.290804335820634	3.324903987077047	1.0	0.0	0.0	0.01
C	9.514073093361008	2.363576669479995	3.06154130336277	1.0	0.0	0.0	0.01
C	8.872097403735507	1.0382509102862523	1.095171236722925	1.0	0.0	0.0	0.01
H	7.469322421208101	4.376480483602313	2.910266720473025	1.0	0.0	0.0	0.01
H	4.669775256933214	4.372579433689334	2.9798546807184705	1.0	0.0	0.0	0.01
C	1.6292941192311965	1.616820148604702	0.9266469370052381	1.0	0.0	0.0	0.01
H	3.448436875697911	2.4931170123873754	0.18342663970902853	1.0	0.0	0.0	0.01
C	1.679385982308133	0.8678039505370643	3.212869154729202	1.0	0.0	0.0	0.01
C	10.824585721903972	1.9287890553711282	2.906312224642744	1.0	0.0	0.0	0.01
C	11.160594066717628	1.0886388328350798	1.845451625388861	1.0	0.0	0.0	0.01
C	10.19634503604955	0.6528860060572941	0.9375225093621569	1.0	0.0	0.0	0.01
C	0.990039064730079	1.0317735894062459	2.0153578842618907	1.0	0.0	0.0	0.01
H	1.2108232839113084	0.41405043023311466	4.069073650503683	1.0	0.0	0.0	0.01
H	8.121005757840196	0.7035548182640616	0.3878706846422172	1.0	0.0	0.0	0.01
H	9.24504263698694	2.9950300905238123	3.900199534207126	1.0	0.0	0.0	0.01
H	11.586860271371304	2.2552727708167337	3.5972576717422786	1.0	0.0	0.0	0.01
H	12.17663742278749	0.7710068058306306	1.7274678195070834	1.0	0.0	0.0	0.01
H	10.47705737258422	-0.003248075699767223	0.1276036097318397	1.0	0.0	0.0	0.01
H	-0.03319536155786042	0.7059050710407556	1.9310838970427524	1.0	0.0	0.0	0.01
H	1.120561899213638	1.7518252994689074	-0.012303650102543473	1.0	0.0	0.0	0.01
H	3.5379479032007564	1.160088290437326	4.257716977649396	1.0	0.0	0.0	0.01
N	5.001797138328376	2.3715750368378092	2.1849465420880576	0.0	0.0	1.0	0.5
C	6.082297086228119	1.5924083617032023	2.149443389012074	0.0	0.0	1.0	0.5
N	7.165726100752668	2.3674190682057255	2.184092147529898	0.0	0.0	1.0	0.5
H	6.080104485887158	0.5029119084825888	2.098951723229984	0.0	0.0	1.0	0.5
C	6.765176936799331	3.689845149796568	2.2447223337870357	0.0	0.0	1.0	0.5
C	5.407114856050627	3.692483519392712	2.2439833829243496	0.0	0.0	1.0	0.5
C	3.643856924648265	1.9037279239967495	2.1758985380151836	0.0	0.0	1.0	0.5
C	8.522779745424895	1.8975289553366126	2.1520817532075047	0.0	0.0	1.0	0.5
C	2.727443622929921	2.4986682666742785	1.3109547924534097	0.0	0.0	1.0	0.5
C	3.275099284848832	0.8672950224524211	3.0308537292491793	0.0	0.0	1.0	0.5
C	9.439198980474885	2.41770118836064	3.0638783912097463	0.0	0.0	1.0	0.5
C	8.891066280193066	0.936138081080894	1.2132122063000117	0.0	0.0	1.0	0.5
H	7.480938664464737	4.5088300138505195	2.2764696577839874	0.0	0.0	1.0	0.5
H	4.694364336437403	4.5132954177591635	2.292159838565501	0.0	0.0	1.0	0.5
C	1.4117750895241246	2.0403995822477174	1.3071865714153281	0.0	0.0	1.0	0.5
H	3.041860124123871	3.3027358818260666	0.6401344630483796	0.0	0.0	1.0	0.5
C	1.9589878014183668	0.41013384643762296	3.006968496295967	0.0	0.0	1.0	0.5
C	10.754821473404679	1.960925252551947	3.029311921903514	0.0	0.0	1.0	0.5
C	11.13842902176551	0.9907246127316288	2.102582740484348	0.0	0.0	1.0	0.5
C	10.207239307828043	0.47857470809596814	1.199100445430515	0.0	0.0	1.0	0.5
C	1.0277631450591374	0.9963817506391744	2.1498263424335367	0.0	0.0	1.0	0.5
H	1.660315447111083	-0.40322298030256776	3.673130629711454	0.0	0.0	1.0	0.5
H	8.16019071643932	0.5590745962203061	0.4927138655222989	0.0	0.0	1.0	0.5
H	9.123419039987759	3.1630348497332115	3.7988343716676956	0.0	0.0	1.0	0.5
H	11.482067991604126	2.360429269704853	3.7408428703734096	0.0	0.0	1.0	0.5
H	12.170903858440173	0.6317992813072737	2.083281158332851	0.0	0.0	1.0	0.5
H	10.506273495180682	-0.2762364007913176	0.46740166416277673	0.0	0.0	1.0	0.5
H	-0.005029644317197324	0.6380543000644632	2.1398600689635545	0.0	0.0	1.0	0.5
H	0.6847877801209785	2.498279975148339	0.6314484513607104	0.0	0.0	1.0	0.5
H	4.005784907971176	0.431373511031385	3.7174745221740033	0.0	0.0	1.0	0.5
