82

N	5.0315258713057505	3.5928362822276076	1.7557112224930644	1.0	0.0	0.0	0.01
C	6.09111704898156	3.388955229548652	0.9301324998067118	1.0	0.0	0.0	0.01
N	7.169474219893363	3.517417075813532	1.7326846069085078	1.0	0.0	0.0	0.01
C	6.794545018978164	3.6483012937346504	3.0781632158125705	1.0	0.0	0.0	0.01
C	5.441656726258977	3.7037898254197152	3.093630838649139	1.0	0.0	0.0	0.01
C	3.6776772008603964	3.6565344869015193	1.308897343294101	1.0	0.0	0.0	0.01
C	8.52319296977512	3.3742223174333117	1.2935799773120298	1.0	0.0	0.0	0.01
C	2.9377186611196593	4.868497042168354	1.4504419590509208	1.0	0.0	0.0	0.01
C	3.1179617258399124	2.468018070734786	0.7506880296893478	1.0	0.0	0.0	0.01
C	9.123538766452215	2.0855968041176687	1.3724493810743683	1.0	0.0	0.0	0.01
C	9.230640781548882	4.532736596521325	0.8682786271826698	1.0	0.0	0.0	0.01
H	7.511900869100148	3.7058423440222796	3.909131347112904	1.0	0.0	0.0	0.01
H	4.758906447048455	3.804244580381405	3.9552011596654264	1.0	0.0	0.0	0.01
C	1.752115234464964	2.5057056461757785	0.38600919816351714	1.0	0.0	0.0	0.01
C	1.0013999997042347	3.669318610186462	0.5434004336384324	1.0	0.0	0.0	0.01
C	1.5788398812045779	4.831287845640212	1.0474616438183448	1.0	0.0	0.0	0.01
C	10.484093888688603	1.9896761601007853	0.991167108283946	1.0	0.0	0.0	0.01
C	11.19670963260275	3.110385137541959	0.5724342240457712	1.0	0.0	0.0	0.01
C	10.588576616740907	4.361413263758334	0.5077469389570866	1.0	0.0	0.0	0.01
C	3.5689950149882503	6.1061693787457845	1.9998318217757287	1.0	0.0	0.0	0.01
C	3.964854577950801	1.2436820034106693	0.6270250066898743	1.0	0.0	0.0	0.01
H	1.2829477150364157	1.6098615230718734	-0.02294126999626314	1.0	0.0	0.0	0.01
H	-0.05153831874082713	3.6688157752511557	0.26460177049861516	1.0	0.0	0.0	0.01
H	0.9692168331073886	5.731750739849832	1.1451376057331444	1.0	0.0	0.0	0.01
C	8.338490759544472	0.9018849109220393	1.8403412428544386	1.0	0.0	0.0	0.01
H	11.16798203750391	5.224166874660495	0.17660644035056955	1.0	0.0	0.0	0.01
C	8.543704661789045	5.858473048525707	0.8264972318118684	1.0	0.0	0.0	0.01
H	10.984771621799101	1.0213745646333678	1.031266052051556	1.0	0.0	0.0	0.01
H	12.245209692277166	3.0079393035523085	0.29534444805018395	1.0	0.0	0.0	0.01
H	3.387579488904246	0.42442403429909153	0.17595103184394995	1.0	0.0	0.0	0.01
H	4.327284123625944	0.9083061037688481	1.608086850759063	1.0	0.0	0.0	0.01
H	4.850158639658535	1.4492488724455217	-0.006587102592484155	1.0	0.0	0.0	0.01
H	3.58892573787701	6.108347336537977	3.099921136817217	1.0	0.0	0.0	0.01
H	2.9941652350188774	6.988809291995634	1.6873450333846032	1.0	0.0	0.0	0.01
H	4.604250953058164	6.216549060133834	1.6607830477273013	1.0	0.0	0.0	0.01
H	7.6529486212817925	5.830217122751239	0.1819000699834634	1.0	0.0	0.0	0.01
H	9.22433822420238	6.6301521198754845	0.4359441699928251	1.0	0.0	0.0	0.01
H	8.201647374514177	6.172292947987198	1.822943887064224	1.0	0.0	0.0	0.01
H	7.397166514360642	0.7843714806443722	1.2815785474971937	1.0	0.0	0.0	0.01
H	8.057334140104984	0.9809001582473517	2.9031161035788946	1.0	0.0	0.0	0.01
H	8.929956761427754	-0.01882327968496107	1.719523329092998	1.0	0.0	0.0	0.01
N	5.0435563068476394	3.551604033632383	1.769501644444744	0.0	0.0	1.0	0.5
C	6.10562207055956	3.5043167990955646	0.9202898963948991	0.0	0.0	1.0	0.5
N	7.160142902343443	3.4661095348975888	1.7790468981115266	0.0	0.0	1.0	0.5
C	6.772211362556877	3.487408740014157	3.1140026094016893	0.0	0.0	1.0	0.5
C	5.419898286631737	3.5428355811092764	3.107839187210968	0.0	0.0	1.0	0.5
C	3.68237479130406	3.604372260706311	1.3254764309782587	0.0	0.0	1.0	0.5
C	8.525014053065306	3.4051513020731083	1.3473095513865767	0.0	0.0	1.0	0.5
C	3.060018656139167	4.8559063733836485	1.2073144694484772	0.0	0.0	1.0	0.5
C	3.0230304626742317	2.4034986522046493	1.0247448542360116	0.0	0.0	1.0	0.5
C	9.12719796967475	2.1477883611625277	1.1933515006240272	0.0	0.0	1.0	0.5
C	9.207847282065263	4.603716832973587	1.0941094177220367	0.0	0.0	1.0	0.5
H	7.48844513046298	3.4609375205652695	3.9336630321554757	0.0	0.0	1.0	0.5
H	4.696583016277336	3.577002253020333	3.920984562177008	0.0	0.0	1.0	0.5
C	1.6948723320257315	2.477690474062752	0.5921604301039606	0.0	0.0	1.0	0.5
C	1.0536827791520098	3.708411123808928	0.4681696988739822	0.0	0.0	1.0	0.5
C	1.7312088883388341	4.8872388513791964	0.7724824184137309	0.0	0.0	1.0	0.5
C	10.460338705572521	2.1082587155164485	0.7725172462874287	0.0	0.0	1.0	0.5
C	11.161428216575285	3.284773125070686	0.5163382853691912	0.0	0.0	1.0	0.5
C	10.539663088824746	4.521578217905212	0.6745291193449123	0.0	0.0	1.0	0.5
C	3.8091229809629037	6.122019502490297	1.5301182360345285	0.0	0.0	1.0	0.5
C	3.7315375687166115	1.080541430917438	1.152206702827932	0.0	0.0	1.0	0.5
H	1.1597552489502405	1.5537863618357142	0.35223974109872747	0.0	0.0	1.0	0.5
H	0.014088679247138636	3.749282509343319	0.1304008184949883	0.0	0.0	1.0	0.5
H	1.2263171168925524	5.852841562357653	0.6717485349390462	0.0	0.0	1.0	0.5
C	8.35283162048411	0.8849394523481169	1.464565163291335	0.0	0.0	1.0	0.5
H	11.092665981145931	5.443676488184611	0.47108966854900514	0.0	0.0	1.0	0.5
C	8.518406676108576	5.932895541913279	1.2565599116870905	0.0	0.0	1.0	0.5
H	10.950717307960424	1.1381752201443143	0.6461864193619715	0.0	0.0	1.0	0.5
H	12.204326597782114	3.237428054851155	0.18978041174479943	0.0	0.0	1.0	0.5
H	3.033493425314164	0.24753644938455333	0.9907763211368097	0.0	0.0	1.0	0.5
H	4.190094848898611	0.9641890740911503	2.146848837937367	0.0	0.0	1.0	0.5
H	4.545240954842807	0.9981509991092112	0.41366889740818413	0.0	0.0	1.0	0.5
H	4.097469730112832	6.157164920121931	2.5929388430986586	0.0	0.0	1.0	0.5
H	3.1940195583742903	7.0058910640524985	1.312332965551492	0.0	0.0	1.0	0.5
H	4.7391635797854725	6.189335673803763	0.9435643541784353	0.0	0.0	1.0	0.5
H	7.688615233921765	6.034599243045356	0.5386657265012988	0.0	0.0	1.0	0.5
H	9.2223505238237	6.760070787265569	1.0910262087066884	0.0	0.0	1.0	0.5
H	8.085106446045852	6.040949298696651	2.263449317786187	0.0	0.0	1.0	0.5
H	7.455789923740941	0.8292818119036167	0.8272357722114302	0.0	0.0	1.0	0.5
H	8.005528946932358	0.8443065307046167	2.509339201215573	0.0	0.0	1.0	0.5
H	8.972202718723917	-0.001968745093293922	1.2728529034813632	0.0	0.0	1.0	0.5
