60

N	4.985538242521382	3.1614604497804133	1.069395966598918	1.0	0.0	0.0	0.01
C	6.077594939755566	2.434871495867808	0.7875708005271929	1.0	0.0	0.0	0.01
N	7.169574195950712	3.1614445532736983	1.0699726366898414	1.0	0.0	0.0	0.01
H	6.077725324938227	1.417798600385295	0.3858063711131874	1.0	0.0	0.0	0.01
C	6.764988584290373	4.3876091730588005	1.577360966760846	1.0	0.0	0.0	0.01
C	5.3899470284464615	4.387660588844177	1.5768332310661555	1.0	0.0	0.0	0.01
C	3.6081249899372843	2.736404008519225	0.9291272912330586	1.0	0.0	0.0	0.01
C	8.547029830245748	2.7365488606160127	0.9298617052373892	1.0	0.0	0.0	0.01
C	2.667748962269197	3.672083696640917	0.5001249934482308	1.0	0.0	0.0	0.01
C	3.2951404531537563	1.4022105831414378	1.1999251166017202	1.0	0.0	0.0	0.01
C	9.48702113951174	3.6719959446161603	0.49950398102731175	1.0	0.0	0.0	0.01
C	8.860363823801803	1.402637596272039	1.2015851373719921	1.0	0.0	0.0	0.01
H	7.480370871076247	5.147882765314773	1.903501062015987	1.0	0.0	0.0	0.01
H	4.674399883746989	5.147996203232483	1.9024442453264576	1.0	0.0	0.0	0.01
C	1.3591384211940591	3.24141420163624	0.3273935068905986	1.0	0.0	0.0	0.01
H	2.93677613910161	4.690725811756629	0.2455439768812685	1.0	0.0	0.0	0.01
C	1.9708844616580499	1.008562219834376	1.0582019243762546	1.0	0.0	0.0	0.01
C	10.79552731797885	3.2413097401607547	0.3260733776920216	1.0	0.0	0.0	0.01
C	11.140184125522108	1.9216168117481685	0.6149208958848787	1.0	0.0	0.0	0.01
C	10.184551571152095	1.0089944676007543	1.059198070214326	1.0	0.0	0.0	0.01
C	1.0147951575251528	1.921471979262996	0.6155026029084472	1.0	0.0	0.0	0.01
H	1.6857044437061381	-0.011252362320841366	1.269226163037662	1.0	0.0	0.0	0.01
H	8.11933506246204	0.6927121378000857	1.5582719111599588	1.0	0.0	0.0	0.01
H	9.21765186458716	4.690397115300798	0.24440706754386635	1.0	0.0	0.0	0.01
H	11.547581341874649	3.9368781257192254	-0.013468446358786645	1.0	0.0	0.0	0.01
H	12.155618645397798	1.6050845865031291	0.4922520758221916	1.0	0.0	0.0	0.01
H	10.470053041148613	-0.01059810039993337	1.2708695955585685	1.0	0.0	0.0	0.01
H	-0.0007224556227370956	1.6049749162465097	0.4934900799457683	1.0	0.0	0.0	0.01
H	0.6067672793507258	3.937213312287434	-0.010979182360890278	1.0	0.0	0.0	0.01
H	4.036441145246298	0.692018414317435	1.5555155816772794	1.0	0.0	0.0	0.01
N	4.995611215969027	3.1421634584280707	1.1404264201646628	0.0	0.0	1.0	0.5
C	6.077525412676087	2.4424562266670518	0.7990502737117389	0.0	0.0	1.0	0.5
N	7.159426216027372	3.1422415969288267	1.1403045395743576	0.0	0.0	1.0	0.5
H	6.077523700437579	1.4753098065867463	0.2954698062232569	0.0	0.0	1.0	0.5
C	6.756320885343325	4.33466427003758	1.7129955902878096	0.0	0.0	1.0	0.5
C	5.398690885326607	4.334634202652106	1.7130308969244545	0.0	0.0	1.0	0.5
C	3.636066333551414	2.7277802177369015	0.9360803065427851	0.0	0.0	1.0	0.5
C	8.518983333638559	2.7279354873572483	0.9358958226579206	0.0	0.0	1.0	0.5
C	2.7237565599665	3.643408977394591	0.41561678414936737	0.0	0.0	1.0	0.5
C	3.25937521571599	1.4283387669780456	1.2679292422885817	0.0	0.0	1.0	0.5
C	9.431241560024919	3.64364429046702	0.4154842508979512	0.0	0.0	1.0	0.5
C	8.8957432158589	1.428485117140893	1.267634131056108	0.0	0.0	1.0	0.5
H	7.4715396703240184	5.063436241650086	2.088825415767059	0.0	0.0	1.0	0.5
H	4.683463670280385	5.063368094227208	2.0889169888207046	0.0	0.0	1.0	0.5
C	1.402677668890341	3.243411040925243	0.22751350998260744	0.0	0.0	1.0	0.5
H	3.04466765515966	4.6541758007133005	0.15042200113482784	0.0	0.0	1.0	0.5
C	1.9374273334255374	1.038129499948137	1.0615376052952907	0.0	0.0	1.0	0.5
C	10.752335668975647	3.243721480369904	0.22732233400531088	0.0	0.0	1.0	0.5
C	11.145376557863472	1.943485400599872	0.545790276644011	0.0	0.0	1.0	0.5
C	10.217704333594796	1.0383519760734727	1.0611848526792222	0.0	0.0	1.0	0.5
C	1.0097045577224817	1.94318187940587	0.5460920627316604	0.0	0.0	1.0	0.5
H	1.6318902425762722	0.02071655891876789	1.3185412449336007	0.0	0.0	1.0	0.5
H	8.1686170284378	0.7321199696275815	1.6938987500021567	0.0	0.0	1.0	0.5
H	9.110282655177421	4.654417051599207	0.15037014962963902	0.0	0.0	1.0	0.5
H	11.476489845673303	3.9546439801095716	-0.17858438420373812	0.0	0.0	1.0	0.5
H	12.182592646390603	1.634513433011693	0.39171633072785633	0.0	0.0	1.0	0.5
H	10.523292242785658	0.020934095616856663	1.3181087956653195	0.0	0.0	1.0	0.5
H	-0.027501353771289594	1.6341468126516288	0.39206404924198	0.0	0.0	1.0	0.5
H	0.678482845608503	3.9542715040469774	-0.17842996213036832	0.0	0.0	1.0	0.5
H	3.986548028277201	0.7320406591465618	1.6942246204855698	0.0	0.0	1.0	0.5
