68

N	2.795263072975822	2.5874000723775734	2.0035894267716325	1.0	0.0	0.0	0.01
C	3.902101739019013	1.8107204514909763	1.85358622873368	1.0	0.0	0.0	0.01
N	5.021532718188285	2.5158044078731927	2.0717909894536706	1.0	0.0	0.0	0.01
H	3.7953038800962005	0.8025883737911893	1.6579087428313835	1.0	0.0	0.0	0.01
C	4.687034686757297	3.750720360907433	2.268560782390589	1.0	0.0	0.0	0.01
C	3.1103518203672493	3.786931097116616	2.2193708739999836	1.0	0.0	0.0	0.01
C	1.3911448117868699	1.942494993114741	1.9977697403027492	1.0	0.0	0.0	0.01
C	6.442887087962938	1.9347281434763048	2.154444176648348	1.0	0.0	0.0	0.01
C	1.4787257344975726	0.8204754556564197	0.9765784511939937	1.0	0.0	0.0	0.01
H	0.800559627773378	2.775757160148679	1.6186703499315496	1.0	0.0	0.0	0.01
C	1.0342573496774838	1.567257912276735	3.4177052328818993	1.0	0.0	0.0	0.01
C	6.57133832812122	0.9795936391487243	0.9931307676376554	1.0	0.0	0.0	0.01
C	6.627455546723514	1.3703021755255118	3.5482580986516967	1.0	0.0	0.0	0.01
H	7.059088943884908	2.82329799250435	1.9956879766625462	1.0	0.0	0.0	0.01
C	5.500075945255128	4.921930501847625	2.511379095222457	1.0	0.0	0.0	0.01
C	2.293836315932197	4.98171663233337	2.3711771658076226	1.0	0.0	0.0	0.01
H	0.48214631960100046	0.3429426434747638	0.939095541677756	1.0	0.0	0.0	0.01
H	2.194572172444546	0.05161624837122274	1.2159859691213342	1.0	0.0	0.0	0.01
H	1.6814802297361482	1.2410311134881709	-0.02373023765793753	1.0	0.0	0.0	0.01
H	1.710811586951044	0.7994300047735059	3.8196211611908093	1.0	0.0	0.0	0.01
H	0.01504213671967793	1.159185845821257	3.450052929849339	1.0	0.0	0.0	0.01
H	1.0974118710504328	2.435736144512462	4.104732804157255	1.0	0.0	0.0	0.01
H	6.387224036385125	1.506156196389085	0.0394691877410298	1.0	0.0	0.0	0.01
H	5.8979080348190065	0.1386566893408841	1.0662042652978103	1.0	0.0	0.0	0.01
H	7.603658515069037	0.5913037315865132	0.9818298825580792	1.0	0.0	0.0	0.01
H	7.649756297679619	0.9885811911856944	3.663713144698923	1.0	0.0	0.0	0.01
H	5.933922798269496	0.5420660144284153	3.7456183661142455	1.0	0.0	0.0	0.01
H	6.444981964021225	2.1429186245061693	4.326741520171895	1.0	0.0	0.0	0.01
H	2.0259911631212204	5.335722616156683	1.3622172441477014	1.0	0.0	0.0	0.01
H	2.871854908534219	5.778803117008759	2.8410342273483957	1.0	0.0	0.0	0.01
H	1.3720043710818128	4.781852019283275	2.9092116524078024	1.0	0.0	0.0	0.01
H	6.213562393518036	4.7964414767325785	3.3312985850406323	1.0	0.0	0.0	0.01
H	4.8052794149208164	5.696407306819406	2.7276097902850722	1.0	0.0	0.0	0.01
H	6.046703125426091	5.203654942924157	1.6062700853542204	1.0	0.0	0.0	0.01
N	2.8410351222193673	2.4696348009494993	2.0112420268457885	0.0	0.0	1.0	0.5
C	3.9318608315920813	1.7162906898650672	1.9124486876628113	0.0	0.0	1.0	0.5
N	5.005008860073611	2.4791975994228106	2.0983102816548462	0.0	0.0	1.0	0.5
H	3.9462868537736666	0.646294842203639	1.7132349491397898	0.0	0.0	1.0	0.5
C	4.592039490992323	3.7812224339292744	2.3403291735083953	0.0	0.0	1.0	0.5
C	3.2233055708104614	3.7762425132028903	2.2815762559029413	0.0	0.0	1.0	0.5
C	1.4452470861240552	1.988961395522911	1.9234270416621566	0.0	0.0	1.0	0.5
C	6.403930163028657	2.0004078468302144	2.1078963440308693	0.0	0.0	1.0	0.5
C	1.3330260983171014	0.8071253152088882	0.9725207310013118	0.0	0.0	1.0	0.5
H	0.883136642986003	2.8341579971862263	1.4994582126712432	0.0	0.0	1.0	0.5
C	0.915681558115768	1.672836094072446	3.3169381316916398	0.0	0.0	1.0	0.5
C	6.6364610672723545	0.989010117286881	0.9953609164137527	0.0	0.0	1.0	0.5
C	6.758280290628857	1.4642680674336315	3.4892106327864396	0.0	0.0	1.0	0.5
H	7.009606329690999	2.8932699689974153	1.8971862792373404	0.0	0.0	1.0	0.5
C	5.546154159570511	4.898187645663086	2.5903845950800464	0.0	0.0	1.0	0.5
C	2.2447843552224382	4.891282609414686	2.421753147718703	0.0	0.0	1.0	0.5
H	0.269103416104989	0.57436808659372	0.8247850844295719	0.0	0.0	1.0	0.5
H	1.814761118966306	-0.09350555679716477	1.3844807829392731	0.0	0.0	1.0	0.5
H	1.775718135522478	1.0355990296935973	-0.008243002462316351	0.0	0.0	1.0	0.5
H	1.4751404824221845	0.8334908958657377	3.7592327889714325	0.0	0.0	1.0	0.5
H	-0.1442217229331053	1.3872567342029904	3.2501287498924927	0.0	0.0	1.0	0.5
H	0.9961540591905815	2.5401738635610682	3.9887393671134466	0.0	0.0	1.0	0.5
H	6.328747408233897	1.3947354651000257	0.0203503588739542	0.0	0.0	1.0	0.5
H	6.093848850461834	0.04873306085741813	1.1796407165284668	0.0	0.0	1.0	0.5
H	7.7083469050743725	0.7495437899109252	0.950089280508513	0.0	0.0	1.0	0.5
H	7.8171941522394395	1.168199915775891	3.509647650106348	0.0	0.0	1.0	0.5
H	6.1456339244319365	0.5806457934564284	3.729510411533874	0.0	0.0	1.0	0.5
H	6.595590617359352	2.2266207315217055	4.266020175166217	0.0	0.0	1.0	0.5
H	1.667252081725597	5.029766649652402	1.494680851068647	0.0	0.0	1.0	0.5
H	2.7770385285335952	5.8273029209977185	2.6325283632893712	0.0	0.0	1.0	0.5
H	1.534807446099013	4.708303007056244	3.242159341706959	0.0	0.0	1.0	0.5
H	6.190488031423546	4.686366770416248	3.4572764551505757	0.0	0.0	1.0	0.5
H	4.990505265067132	5.821682471279395	2.796382678559184	0.0	0.0	1.0	0.5
H	6.193315768026232	5.076551730058545	1.7178967582417477	0.0	0.0	1.0	0.5
