68

N	2.9861675417973195	2.3011727566451685	2.2513282374530545	1.0	0.0	0.0	0.01
C	4.16680031560629	1.6825043611894868	2.039740905394961	1.0	0.0	0.0	0.01
N	5.203325506416268	2.5401217557750484	2.1865859712848525	1.0	0.0	0.0	0.01
H	4.252063266755641	0.6710648567197246	1.7994221480726653	1.0	0.0	0.0	0.01
C	4.725758481392606	3.70418039569324	2.461690402204713	1.0	0.0	0.0	0.01
C	3.155786994751466	3.5371061840107645	2.5174984540973284	1.0	0.0	0.0	0.01
C	1.6351621832545031	1.5371415682727196	2.1467244852109917	1.0	0.0	0.0	0.01
C	6.673957587287216	2.0992095672153464	2.1581796489612173	1.0	0.0	0.0	0.01
C	0.7951150018524366	1.85172114137486	3.376066519179186	1.0	0.0	0.0	0.01
H	1.9933210707141904	0.48941034706207714	2.1556477234300986	1.0	0.0	0.0	0.01
C	1.0214864079923156	1.9073242619337853	0.8001849673765196	1.0	0.0	0.0	0.01
C	6.727954281708001	0.8898963182990938	1.2490977017427707	1.0	0.0	0.0	0.01
C	7.134257722404613	1.8690412167316524	3.58243747671723	1.0	0.0	0.0	0.01
H	7.123258897189507	2.9771203906385693	1.6924371451800193	1.0	0.0	0.0	0.01
C	5.430511042460502	4.948088186880803	2.7214412344394963	1.0	0.0	0.0	0.01
C	2.2528091342591314	4.62877904843694	2.8432223845693576	1.0	0.0	0.0	0.01
H	-0.08371500063168094	1.1860686153097455	3.378781226834807	1.0	0.0	0.0	0.01
H	0.4474399986865503	2.857832085814223	3.4394569942200954	1.0	0.0	0.0	0.01
H	1.3902683365475952	1.6375811697753002	4.2895926152580905	1.0	0.0	0.0	0.01
H	0.11264716984956281	1.3102304288599442	0.632936724748812	1.0	0.0	0.0	0.01
H	1.7380441804104763	1.7044627419967129	-0.018779984228486424	1.0	0.0	0.0	0.01
H	0.7499160336712465	2.956271322293872	0.7427814889463328	1.0	0.0	0.0	0.01
H	6.2261310570591855	1.104474939997693	0.2857352484067642	1.0	0.0	0.0	0.01
H	6.307927142314353	0.0013305011224183335	1.6957321424767813	1.0	0.0	0.0	0.01
H	7.796241997266228	0.6845250117632345	1.047842267956217	1.0	0.0	0.0	0.01
H	8.215118721557268	1.6575368320966688	3.5979101293564613	1.0	0.0	0.0	0.01
H	6.615787747998729	1.0020346642293176	4.010645916520987	1.0	0.0	0.0	0.01
H	6.926611214151777	2.7319995268830635	4.241708072767908	1.0	0.0	0.0	0.01
H	2.006428344587533	4.576369467836992	3.9149714818406576	1.0	0.0	0.0	0.01
H	1.3205014346318475	4.581330465812266	2.2983353618762594	1.0	0.0	0.0	0.01
H	2.749368189974635	5.567406570333078	2.669300238409136	1.0	0.0	0.0	0.01
H	5.1508937598802005	5.671985710638682	1.9422214535664597	1.0	0.0	0.0	0.01
H	6.501845462770975	4.836651727675868	2.737228065391325	1.0	0.0	0.0	0.01
H	5.079004199416789	5.358289355451567	3.681032847011928	1.0	0.0	0.0	0.01
N	2.9788774789355443	2.2641698435877045	2.279598784953403	0.0	0.0	1.0	0.5
C	4.128332038725926	1.6100164110608903	2.1406722990247427	0.0	0.0	1.0	0.5
N	5.139322375895212	2.463325413963689	2.2536381151788465	0.0	0.0	1.0	0.5
H	4.213963870503134	0.5392731389933663	1.961343679042846	0.0	0.0	1.0	0.5
C	4.624260752831605	3.730156052375337	2.4823930889403307	0.0	0.0	1.0	0.5
C	3.25813004522608	3.609441870881769	2.4957297403028558	0.0	0.0	1.0	0.5
C	1.6685915931160213	1.5825757746344922	2.151781192412508	0.0	0.0	1.0	0.5
C	6.575552008802519	2.1127200001538053	2.223002391976319	0.0	0.0	1.0	0.5
C	0.8093514607260106	1.775056062278047	3.3937083928977256	0.0	0.0	1.0	0.5
H	1.936782339152081	0.5169834377656226	2.0894175844992158	0.0	0.0	1.0	0.5
C	0.9708726204930622	1.9689639723473327	0.8535813165296822	0.0	0.0	1.0	0.5
C	6.833723442256096	0.956419326897002	1.26874414324153	0.0	0.0	1.0	0.5
C	7.0724155242208075	1.8329457505257083	3.636154591101811	0.0	0.0	1.0	0.5
H	7.074931136151435	3.009926436887839	1.828946464185285	0.0	0.0	1.0	0.5
C	5.490704929672907	4.931637934631123	2.6480266372507253	0.0	0.0	1.0	0.5
C	2.2329522011955474	4.671919163414108	2.715752498403145	0.0	0.0	1.0	0.5
H	-0.05335551753017009	1.0958664955329949	3.33334929322123	0.0	0.0	1.0	0.5
H	0.420605261171771	2.800082263560963	3.4746587520238537	0.0	0.0	1.0	0.5
H	1.3756062465454466	1.533339143820253	4.305312160909821	0.0	0.0	1.0	0.5
H	0.08156200849221262	1.3348761602722896	0.7253517765181936	0.0	0.0	1.0	0.5
H	1.6345130110058146	1.8120727911244432	-0.009486742475845134	0.0	0.0	1.0	0.5
H	0.6380663009980654	3.0173369611649288	0.8593776184415247	0.0	0.0	1.0	0.5
H	6.416167388988581	1.1578492643279745	0.27115932060577475	0.0	0.0	1.0	0.5
H	6.413556570938957	0.01270058500903648	1.650484265674268	0.0	0.0	1.0	0.5
H	7.919305080754966	0.8175562795101563	1.167448782940351	0.0	0.0	1.0	0.5
H	8.157734935391582	1.6569990472008764	3.616262502271142	0.0	0.0	1.0	0.5
H	6.581707268345878	0.9357625979785877	4.045447475108844	0.0	0.0	1.0	0.5
H	6.872116171686218	2.679204632522548	4.309833779428631	0.0	0.0	1.0	0.5
H	1.7563878555345824	4.574702139270514	3.702603015233024	0.0	0.0	1.0	0.5
H	1.4459939303826337	4.64973869569028	1.9494435604031368	0.0	0.0	1.0	0.5
H	2.716731096506014	5.655838771687703	2.671165391601762	0.0	0.0	1.0	0.5
H	4.8712822776871425	5.81774653237307	2.833457944736066	0.0	0.0	1.0	0.5
H	6.090466052342221	5.1165025552513566	1.7433931991978424	0.0	0.0	1.0	0.5
H	6.180985668839397	4.81655798807413	3.497384680894395	0.0	0.0	1.0	0.5
