68

N	2.847316644637893	2.622571577242849	2.0082549030861245	1.0	0.0	0.0	0.01
C	3.952348245793427	1.8322577836106322	2.0626459436014204	1.0	0.0	0.0	0.01
N	5.071552916329634	2.563582500088618	2.182894024454492	1.0	0.0	0.0	0.01
H	3.836241160320548	0.8063207729337283	1.9919929789668545	1.0	0.0	0.0	0.01
C	4.741025101961745	3.8112545956376715	2.164110037702179	1.0	0.0	0.0	0.01
C	3.168888757027911	3.8384320777475165	2.0483907642298007	1.0	0.0	0.0	0.01
C	1.4373024306268607	2.0024935000802606	1.9598942101607901	1.0	0.0	0.0	0.01
C	6.4933095609287665	1.9886167864112603	2.234195884515448	1.0	0.0	0.0	0.01
C	1.5724349909802924	0.8224958034249403	1.00715108679711	1.0	0.0	0.0	0.01
H	0.8736107715293289	2.8171074798129427	1.5116767100161268	1.0	0.0	0.0	0.01
C	1.0192251651074413	1.708895786275156	3.3808552785435757	1.0	0.0	0.0	0.01
C	6.9174134728928225	1.689790837443236	0.8120821500115577	1.0	0.0	0.0	0.01
C	6.417836155421319	0.833766324166653	3.2068845309263114	1.0	0.0	0.0	0.01
H	7.052043034301562	2.8239512106494864	2.661755492933946	1.0	0.0	0.0	0.01
C	5.548771676494213	5.009714191024283	2.193563895291608	1.0	0.0	0.0	0.01
C	2.369364291855191	5.046013829284192	2.0080567330109997	1.0	0.0	0.0	0.01
H	1.8372604649312252	1.179000789922124	-0.0040679314361901555	1.0	0.0	0.0	0.01
H	0.5795240017003689	0.3412845374262299	0.9422500281132865	1.0	0.0	0.0	0.01
H	2.2779805584079473	0.07452722512458292	1.324705628293887	1.0	0.0	0.0	0.01
H	1.6518879868133123	0.9386658356968806	3.84401228563392	1.0	0.0	0.0	0.01
H	-0.015471372202629567	1.343688054244435	3.394179574365512	1.0	0.0	0.0	0.01
H	1.0875899421835051	2.615151533197141	4.02371329941891	1.0	0.0	0.0	0.01
H	6.84166357337955	2.5938826606404013	0.16877498391623455	1.0	0.0	0.0	0.01
H	6.291935927185523	0.9145594249412081	0.35079698250511004	1.0	0.0	0.0	0.01
H	7.955488207965356	1.331830925484482	0.8024966402613444	1.0	0.0	0.0	0.01
H	7.421832129934129	0.3815506964142337	3.2827397455011265	1.0	0.0	0.0	0.01
H	5.726108228885877	0.0679909428668237	2.8952880919123714	1.0	0.0	0.0	0.01
H	6.123730250793209	1.1977404202379822	4.20586326163495	1.0	0.0	0.0	0.01
H	3.001974920887729	5.868199468453781	2.2789315051831127	1.0	0.0	0.0	0.01
H	1.4892344316579895	4.994638260770494	2.655440413935556	1.0	0.0	0.0	0.01
H	2.0331146404367946	5.20925295582972	0.9746183747687223	1.0	0.0	0.0	0.01
H	5.894019698501599	5.1740186352554165	3.2235887275592465	1.0	0.0	0.0	0.01
H	4.9218767596509325	5.834978314379142	1.9257409595946233	1.0	0.0	0.0	0.01
H	6.4211079518010985	4.954065436298329	1.5374634187996588	1.0	0.0	0.0	0.01
N	2.8888966593945375	2.5086274489831015	1.9878050402969833	0.0	0.0	1.0	0.5
C	3.966485454421485	1.7371862384666472	2.0961346440407453	0.0	0.0	1.0	0.5
N	5.043976859532594	2.5088351665648587	2.203939582770697	0.0	0.0	1.0	0.5
H	3.966566774571269	0.6484711337199582	2.096536833598758	0.0	0.0	1.0	0.5
C	4.648158759645897	3.837962254760198	2.1606895773086823	0.0	0.0	1.0	0.5
C	3.284570690058688	3.8378456030980224	2.0301252240195056	0.0	0.0	1.0	0.5
C	1.4902796361044848	2.032715654801609	1.9264794957317202	0.0	0.0	1.0	0.5
C	6.442631062112522	2.0331258314527765	2.265823813045706	0.0	0.0	1.0	0.5
C	1.383254631517453	0.7608705624158487	1.0988435979593938	0.0	0.0	1.0	0.5
H	0.9438356270519974	2.8338406004527976	1.4079190996166435	0.0	0.0	1.0	0.5
C	0.9348828098608406	1.8714330785901938	3.3364266362678814	0.0	0.0	1.0	0.5
C	6.998275296517586	1.8709153436049664	0.8560948324871782	0.0	0.0	1.0	0.5
C	6.5496695001455905	0.7619426742560045	3.094482028649515	0.0	0.0	1.0	0.5
H	6.988905323594894	2.834722035230251	2.78383318753948	0.0	0.0	1.0	0.5
C	5.611164448334054	4.971250091615065	2.254223852374372	0.0	0.0	1.0	0.5
C	2.3215139228358046	4.970990053534989	1.9353554567088678	0.0	0.0	1.0	0.5
H	1.837570821818126	0.8908633026748454	0.10547327468078893	0.0	0.0	1.0	0.5
H	0.3204605021815783	0.5151260155291213	0.9635500209882877	0.0	0.0	1.0	0.5
H	1.859903525073674	-0.09494013250990152	1.602386335763581	0.0	0.0	1.0	0.5
H	1.4819149871788042	1.083129757774113	3.8775362439806886	0.0	0.0	1.0	0.5
H	-0.12561383119388125	1.585110452317232	3.283951322082965	0.0	0.0	1.0	0.5
H	1.0114354236298384	2.80865938441734	3.907755529218111	0.0	0.0	1.0	0.5
H	6.92169764315817	2.8077741954660707	0.28415384507985886	0.0	0.0	1.0	0.5
H	6.451460176461351	1.0821715370280165	0.3154090838740038	0.0	0.0	1.0	0.5
H	8.0587992823917	1.5847598807004148	0.9089638571288958	0.0	0.0	1.0	0.5
H	7.612465930749401	0.5164031423708721	3.2301320056617886	0.0	0.0	1.0	0.5
H	6.0731836544362885	-0.09430478956233213	2.5915292749197456	0.0	0.0	1.0	0.5
H	6.095182102843426	0.8926649835924858	4.087677934067093	0.0	0.0	1.0	0.5
H	2.8608853924651956	5.9235177187345105	2.01145720153368	0.0	0.0	1.0	0.5
H	1.576919340783315	4.9340128110979	2.7449866550169792	0.0	0.0	1.0	0.5
H	1.7844333619101147	4.959105507515918	0.9744544893398741	0.0	0.0	1.0	0.5
H	6.148749961716245	4.9600806588160005	3.214848252085078	0.0	0.0	1.0	0.5
H	5.0716863718598155	5.923685545362667	2.1777411413655683	0.0	0.0	1.0	0.5
H	6.355340575959623	4.933737430144291	1.4442212450065983	0.0	0.0	1.0	0.5
