54

N	2.995353808217952	2.1484165856191564	2.4441848222783955	1.0	0.0	0.0	0.01
C	4.166368680814452	2.1505871433851107	3.123969433350081	1.0	0.0	0.0	0.01
N	5.086169385421767	2.146032395064233	2.1467328659811136	1.0	0.0	0.0	0.01
C	4.539423556569579	2.142352776741093	0.8847467486596624	1.0	0.0	0.0	0.01
C	3.1841773438472547	2.143756600409943	1.0649209279198286	1.0	0.0	0.0	0.01
C	1.691277531390455	2.1515661803342954	3.1182461001133923	1.0	0.0	0.0	0.01
C	6.545554431521173	2.147621529262107	2.4325995358862462	1.0	0.0	0.0	0.01
C	0.9405115898728245	3.427000323799613	2.7566665636088867	1.0	0.0	0.0	0.01
H	1.8999843177934277	2.153260852348904	4.201478763957029	1.0	0.0	0.0	0.01
C	0.9365717330422839	0.8771337685249593	2.761355391899663	1.0	0.0	0.0	0.01
H	7.02133707258707	2.1375935901972207	1.4404340419317463	1.0	0.0	0.0	0.01
C	6.924289533323745	0.8773002118675929	3.1889816362547836	1.0	0.0	0.0	0.01
C	6.925203304264185	3.43255990082055	3.1632561575297573	1.0	0.0	0.0	0.01
H	5.173566275133422	2.1388200266721795	-0.002147741792036319	1.0	0.0	0.0	0.01
H	2.3487775880911843	2.141874248276182	0.35930740901898456	1.0	0.0	0.0	0.01
H	0.7004703188080766	0.8685160505617359	1.6841067718857605	1.0	0.0	0.0	0.01
H	-0.007789450282582654	0.8325043032000105	3.319917493649864	1.0	0.0	0.0	0.01
H	1.5117375976933385	-0.031164167021100104	2.989831477616139	1.0	0.0	0.0	0.01
H	-0.0042209046389867855	3.476180761881688	3.314275210317661	1.0	0.0	0.0	0.01
H	0.7052296825463149	3.432964060731313	1.6792435039543736	1.0	0.0	0.0	0.01
H	1.5181123255955635	4.3343806606660635	2.982570218636902	1.0	0.0	0.0	0.01
H	6.670807159083724	4.335881481679871	2.587316472591743	1.0	0.0	0.0	0.01
H	8.004692835508955	3.4618562395606935	3.372512972020815	1.0	0.0	0.0	0.01
H	6.390615869083842	3.476370843890336	4.128707148717462	1.0	0.0	0.0	0.01
H	6.389835268752529	0.85378686066754	4.1552952535535965	1.0	0.0	0.0	0.01
H	8.003827218580804	0.850896181640362	3.398181700806088	1.0	0.0	0.0	0.01
H	6.668344039204117	-0.037138349784358725	2.6316230840889685	1.0	0.0	0.0	0.01
N	2.9896046659149165	2.1490707625322405	2.463427069688617	0.0	0.0	1.0	0.5
C	4.151539977155519	2.1502200270575176	3.166736545280448	0.0	0.0	1.0	0.5
N	5.096870550308136	2.1467643792768216	2.1905861377415485	0.0	0.0	1.0	0.5
C	4.544249991583056	2.143604327819167	0.9212633985269834	0.0	0.0	1.0	0.5
C	3.199070065117042	2.14477937015419	1.0930099947331307	0.0	0.0	1.0	0.5
C	1.664833939294251	2.1515318429214068	3.0901476511739183	0.0	0.0	1.0	0.5
C	6.543669662447741	2.1476744820749385	2.44703548703093	0.0	0.0	1.0	0.5
C	0.8952182885049855	3.4193801827339256	2.7366004725585977	0.0	0.0	1.0	0.5
H	1.8782734169918505	2.1532901328300245	4.169578548113492	0.0	0.0	1.0	0.5
C	0.8929192756776545	0.8838121963301706	2.7411835183174507	0.0	0.0	1.0	0.5
H	7.0150322479283815	2.136528442285771	1.4510743248639393	0.0	0.0	1.0	0.5
C	6.962333468597292	0.8873418910454005	3.1944387897946664	0.0	0.0	1.0	0.5
C	6.965486472539586	3.422541783344316	3.1677117452572383	0.0	0.0	1.0	0.5
H	5.149320594501399	2.1407750495371105	0.015561140363496762	0.0	0.0	1.0	0.5
H	2.390444744200601	2.1428879647304124	0.36347936443697515	0.0	0.0	1.0	0.5
H	0.6613499095579161	0.8419868681591283	1.664434804011143	0.0	0.0	1.0	0.5
H	-0.059122405559481894	0.8575189738739515	3.292223058435974	0.0	0.0	1.0	0.5
H	1.4735998638427028	-0.01244904354369547	3.0075901627861157	0.0	0.0	1.0	0.5
H	-0.05712654698806974	3.4489699564584373	3.286954769390774	0.0	0.0	1.0	0.5
H	0.6644377004303741	3.4580758554591102	1.6595584071566551	0.0	0.0	1.0	0.5
H	1.4771899376913633	4.315539935551593	3.0005073088077987	0.0	0.0	1.0	0.5
H	6.673305759844418	4.313754469031055	2.5916199938113675	0.0	0.0	1.0	0.5
H	8.057730485809284	3.4395123771314355	3.3019681830806036	0.0	0.0	1.0	0.5
H	6.490478758219719	3.4797067929844974	4.159056708598684	0.0	0.0	1.0	0.5
H	6.48819600699707	0.8529979091774533	4.1871831513529445	0.0	0.0	1.0	0.5
H	8.054683575911367	0.8700154808474767	3.3277133769655993	0.0	0.0	1.0	0.5
H	6.6666377053074015	-0.014921348806537615	2.637669852157793	0.0	0.0	1.0	0.5
