84

N	5.002998980346751	3.3578502758397457	1.8190490619216593	1.0	0.0	0.0	0.01
C	6.075298618135174	3.370317901257674	1.036541137131708	1.0	0.0	0.0	0.01
N	7.147509968299657	3.3878479159977077	1.8192438513081994	1.0	0.0	0.0	0.01
H	6.075159932302555	3.3674844974564317	-0.04850279374419843	1.0	0.0	0.0	0.01
C	6.756908624528757	3.390719040386343	3.167425539680294	1.0	0.0	0.0	0.01
C	5.393865193180442	3.362344679970245	3.1671911475153736	1.0	0.0	0.0	0.01
C	3.6408957511569633	3.3807366633803015	1.3947212489509186	1.0	0.0	0.0	0.01
C	8.50948800582915	3.363032489430242	1.3946761339299922	1.0	0.0	0.0	0.01
C	2.954421305453361	2.1431139132009305	1.317450804288757	1.0	0.0	0.0	0.01
C	3.0770283844918747	4.638074064812842	1.0623883099875213	1.0	0.0	0.0	0.01
C	9.071920697939719	2.104781476767252	1.0639338786136334	1.0	0.0	0.0	0.01
C	9.197185095698973	4.5998506214363815	1.315348384872239	1.0	0.0	0.0	0.01
H	7.460151336417839	3.385274317093205	3.988234102930901	1.0	0.0	0.0	0.01
H	4.6904744598473	3.3716401454492924	3.987998498840011	1.0	0.0	0.0	0.01
C	1.6339112968289289	2.2038233884876623	0.8818903517505824	1.0	0.0	0.0	0.01
C	3.578820895566152	0.8479884921261592	1.6840939364995844	1.0	0.0	0.0	0.01
C	1.7520731204381896	4.614844641878843	0.6365270398885406	1.0	0.0	0.0	0.01
C	10.397067405673145	2.1259381207569015	0.6383951232245643	1.0	0.0	0.0	0.01
C	11.098368965619779	3.3202343872043096	0.5512307967591452	1.0	0.0	0.0	0.01
C	10.517764809530384	4.537049344398087	0.8801843497507961	1.0	0.0	0.0	0.01
C	1.0522106529110742	3.4195648818148556	0.5508075217508203	1.0	0.0	0.0	0.01
H	1.259025101083445	5.540120075181831	0.36741369528008083	1.0	0.0	0.0	0.01
C	8.574811309215974	5.896333560507762	1.6804297310537724	1.0	0.0	0.0	0.01
C	8.335482066765943	0.8173330249181218	1.1382146900810683	1.0	0.0	0.0	0.01
H	10.889029201853534	1.1996568794014453	0.3707184641119463	1.0	0.0	0.0	0.01
H	12.116942925957801	3.3021715452869413	0.22027823918191922	1.0	0.0	0.0	0.01
H	11.101554434893847	5.444892323483853	0.7962086757554525	1.0	0.0	0.0	0.01
H	0.0337388856415443	3.4359798015358796	0.2194170798836517	1.0	0.0	0.0	0.01
H	1.0508418538229425	1.2953682293338467	0.7990762445463988	1.0	0.0	0.0	0.01
C	3.812993514118418	5.925942798876844	1.1355302754482666	1.0	0.0	0.0	0.01
H	3.898420248417082	0.8423733025610824	2.746780671611902	1.0	0.0	0.0	0.01
H	4.517156207373367	0.7218960784487349	1.100646543288185	1.0	0.0	0.0	0.01
H	2.9196153526488287	-0.012315040233193991	1.5006757998397358	1.0	0.0	0.0	0.01
H	3.1612880033016193	6.797197979778975	0.9845138969240937	1.0	0.0	0.0	0.01
H	4.6300228425179535	5.953415005262052	0.37563664422274995	1.0	0.0	0.0	0.01
H	4.318845216733694	6.006936779030165	2.1228197109006057	1.0	0.0	0.0	0.01
H	8.98771789719951	-0.05446522986803462	0.9917405095260156	1.0	0.0	0.0	0.01
H	7.521413585719873	0.7872702032179913	0.37529551058474275	1.0	0.0	0.0	0.01
H	7.826358796361819	0.7390268796216045	2.124265410525755	1.0	0.0	0.0	0.01
H	7.632499166724437	6.018884013986054	1.1026686823525196	1.0	0.0	0.0	0.01
H	9.232593034552774	6.755974799696206	1.4886900263572964	1.0	0.0	0.0	0.01
H	8.262659436530733	5.90689458639037	2.7452669708839723	1.0	0.0	0.0	0.01
N	4.994270643548795	3.3831795500992152	1.8752352522609366	0.0	0.0	1.0	0.5
C	6.075407332194535	3.3725662572875867	1.0987965184835589	0.0	0.0	1.0	0.5
N	7.156504078644218	3.36594856627798	1.875339770162181	0.0	0.0	1.0	0.5
H	6.075421497922501	3.3694943224446625	0.007817529602172302	0.0	0.0	1.0	0.5
C	6.754958124763689	3.3726805204356163	3.1985201755931234	0.0	0.0	1.0	0.5
C	5.395759477267397	3.3834331414883003	3.1984568214513285	0.0	0.0	1.0	0.5
C	3.6321030500116036	3.399863554146642	1.3997578651108848	0.0	0.0	1.0	0.5
C	8.518632241213727	3.344709134472812	1.3999621735733123	0.0	0.0	1.0	0.5
C	2.967412370866172	2.174429866495238	1.2588416851446844	0.0	0.0	1.0	0.5
C	3.0516139264695763	4.640397550221481	1.1053991211385015	0.0	0.0	1.0	0.5
C	9.09515759113675	2.1020131500396992	1.1068779098334276	0.0	0.0	1.0	0.5
C	9.187277951630055	4.5678446717379995	1.25788737729036	0.0	0.0	1.0	0.5
H	7.47384076838257	3.367762866698727	4.0155780046451754	0.0	0.0	1.0	0.5
H	4.676809583527784	3.3926206901768197	4.015420976760417	0.0	0.0	1.0	0.5
C	1.649065545524743	2.216087479624181	0.7965813792978896	0.0	0.0	1.0	0.5
C	3.6476923334419302	0.8723167229197948	1.588854041445172	0.0	0.0	1.0	0.5
C	1.7309094015047766	4.630749254828409	0.6470499911016828	0.0	0.0	1.0	0.5
C	10.415872546834056	2.106957139062688	0.648486056863718	0.0	0.0	1.0	0.5
C	11.11214843510064	3.3036737276092856	0.49486746391035696	0.0	0.0	1.0	0.5
C	10.50545023873888	4.521492729994827	0.7955546993711808	0.0	0.0	1.0	0.5
C	1.038443631560546	3.431653437924839	0.4947376075312616	0.0	0.0	1.0	0.5
H	1.2437865215741102	5.580929392530102	0.41006765938844314	0.0	0.0	1.0	0.5
C	8.511425490757507	5.87240404779736	1.5872340294915406	0.0	0.0	1.0	0.5
C	8.321466878689368	0.8198101192243206	1.2650215083428764	0.0	0.0	1.0	0.5
H	10.899954216309752	1.1549553958442682	0.4125833832465815	0.0	0.0	1.0	0.5
H	12.14507130303139	3.287358523925025	0.13612056215446255	0.0	0.0	1.0	0.5
H	11.05816443902108	5.457148139756468	0.6719824864906719	0.0	0.0	1.0	0.5
H	0.005425448996627225	3.4443100576988366	0.13611452209861152	0.0	0.0	1.0	0.5
H	1.0993162453898293	1.2785420852517402	0.6741176105856901	0.0	0.0	1.0	0.5
C	3.8212414914468744	5.925178850604358	1.2623104974456292	0.0	0.0	1.0	0.5
H	3.9208345376544416	0.8227786008705036	2.655047288281204	0.0	0.0	1.0	0.5
H	4.575232440958079	0.7454421772686235	1.007848126292201	0.0	0.0	1.0	0.5
H	2.985674382803953	0.024936655091175375	1.3667905085140397	0.0	0.0	1.0	0.5
H	3.157974404142846	6.789776137622942	1.127013785540515	0.0	0.0	1.0	0.5
H	4.62810281949724	5.9984006659559	0.5146833887273702	0.0	0.0	1.0	0.5
H	4.289412060767574	6.000001065636661	2.256302058475999	0.0	0.0	1.0	0.5
H	8.982724933211987	-0.04702106137819717	1.1342442204439158	0.0	0.0	1.0	0.5
H	7.516827409296177	0.746636829905948	0.5149766255538725	0.0	0.0	1.0	0.5
H	7.849883674101772	0.7490741807062733	2.257696919258178	0.0	0.0	1.0	0.5
H	7.580409893891611	5.9989145370768915	1.0117939323496281	0.0	0.0	1.0	0.5
H	9.173622139839804	6.717777482810223	1.3581545703518565	0.0	0.0	1.0	0.5
H	8.245231079964377	5.926170637377724	2.6549897946065766	0.0	0.0	1.0	0.5
