  19
 
 N         -1.8905000000        0.2329200000        0.1789200000
 C         -0.5913500000       -0.4142900000        0.3588400000
 N          0.0514500000       -0.6334800000       -0.9373900000
 C         -2.9350300000       -0.7926500000        0.0712000000
 C          1.1224700000       -1.6211400000       -0.7675800000
 H         -2.9764100000       -1.4261300000        0.9858000000
 H         -2.7427400000       -1.4430300000       -0.8097100000
 H         -3.9262900000       -0.3125800000       -0.0806900000
 H          1.8833800000       -1.2722300000       -0.0330600000
 H          1.6236100000       -1.8142600000       -1.7415000000
 H          0.6973300000       -2.5864500000       -0.4159700000
 C         -2.1435800000        1.1080700000        1.3274500000
 H         -1.3523000000        1.8868600000        1.3907600000
 H         -2.1609100000        0.5322600000        2.2802800000
 H         -3.1158000000        1.6320000000        1.2014100000
 C          0.6056400000        0.6360100000       -1.4280800000
 H          1.1066800000        0.4827000000       -2.4081300000
 H          1.3397400000        1.0623600000       -0.7076800000
 H         -0.2098100000        1.3741600000       -1.5888000000
