  21
 
 N         -1.0400082812       -0.6698975761        0.0000003048
 C          0.0433299707       -1.4825371554       -0.0000063639
 N          1.0915413336       -0.6165073409        0.0000004071
 C          0.6736628449        0.7019492508       -0.0000005638
 C         -0.6874744835        0.6636098100       -0.0000005828
 C         -2.3889012082       -1.1523676164        0.0000012445
 C          2.4457625134       -1.0988256392        0.0000009341
 H         -2.3548585050       -2.2399743282       -0.0000015861
 H         -2.9273902269       -0.8093475077       -0.8874956274
 H         -2.9273891963       -0.8093516112        0.8875004873
 H          2.6204816963       -1.7150124609        0.8840443763
 H          3.1570593433       -0.2758856836       -0.0000021080
 H          2.6204794993       -1.7150159788       -0.8840403591
 C          1.5527788898        1.9056461590       -0.0000000511
 C         -1.6855434814        1.7650878636       -0.0000005535
 H         -1.1781177002        2.7258162536       -0.0000013850
 H         -2.3249995359        1.7094885079        0.8821305241
 H         -2.3250005193        1.7094874959       -0.8821308339
 H          2.6054529426        1.6384307346        0.0000038546
 H          1.3593458135        2.5162235629        0.8824088167
 H          1.3593513939        2.5162212279       -0.8824119040
          21
        -26.93415920
 N         -1.0632635206       -0.6664429828        0.0001533586
 C         -0.0000441483       -1.5086177333        0.0000660759
 N          1.0631997666       -0.6665177309        0.0000504705
 C          0.6799749429        0.6617087223        0.0000490134
 C         -0.6799679595        0.6617434110        0.0001275462
 C         -2.4238100790       -1.1149708170       -0.0006472678
 C          2.4238107716       -1.1149552567        0.0004109928
 H         -2.9547008027       -0.7587337719        0.8863499921
 H         -2.4165097118       -2.2032298950       -0.0001038974
 H         -2.9531762264       -0.7596904483       -0.8889704539
 H          2.9538584533       -0.7584620654        0.8878029060
 H          2.9538599660       -0.7598338100       -0.8875270507
 H          2.4166164164       -2.2032175999        0.0012264377
 C          1.6621470173        1.7772487052       -0.0007752443
 C         -1.6620601944        1.7773708097        0.0006861662
 H         -2.3020163008        1.7307488259       -0.8815913802
 H         -1.1444861244        2.7330729041        0.0008667361
 H         -2.3015888608        1.7302154186        0.8832693617
 H          2.3006593754        1.7305682991       -0.8841321866
 H          2.3031069656        1.7300097776        0.8807322889
 H          1.1446628142        2.7330031309        0.0002303824
