  16
 
 N         -1.0835147809       -0.0939100434        0.0000026858
 C          0.0029380719       -0.8592885401        0.0000028138
 N          1.0865656814       -0.0857079770        0.0000023419
 H          0.0096736943       -1.9322456518        0.0000024073
 C          0.6784353142        1.2111414262        0.0000031568
 C         -0.6846045684        1.2071220108        0.0000036387
 C         -2.4488845931       -0.5446684239        0.0000031909
 C          2.4492222787       -0.5483248375        0.0000019159
 H         -2.4793418481       -1.6315838335        0.0000012636
 H         -2.9646391454       -0.1711659079       -0.8850812874
 H         -2.9646371427       -0.1711692466        0.8850902675
 H          2.6428541144       -1.1533427595        0.8860275261
 H          3.1213435678        0.3063265543        0.0000045396
 H          2.6428552838       -1.1533382358       -0.8860265459
 H          1.3628509834        2.0340638378        0.0000034305
 H         -1.3773170954        2.0230287207        0.0000042775
          16
        -20.83959690
 N         -1.0848110869       -0.1062974593        0.0001923458
 C          0.0000068349       -0.8751948757        0.0003613465
 N          1.0848136725       -0.1062811586        0.0003848728
 H         -0.0000206234       -1.9481729075        0.0005759752
 C          0.6810976239        1.1938621511        0.0000312251
 C         -0.6810994965        1.1938694932       -0.0000709659
 C         -2.4518238950       -0.5521749480       -0.0003209683
 C          2.4518183165       -0.5521779605       -0.0004100851
 H         -2.4860991901       -1.6389415743        0.0055767966
 H         -2.9643269666       -0.1819503515       -0.8886806691
 H         -2.9680791013       -0.1720891286        0.8816312617
 H          2.9629605865       -0.1857175641       -0.8911885209
 H          2.4861554570       -1.6389394410        0.0100416167
 H          2.9694420919       -0.1682996504        0.8791174497
 H          1.3712522328        2.0120258985       -0.0000166675
 H         -1.3713130761        2.0120029481       -0.0001994705
