  16
 
 N         -1.9703300000       -0.4638300000        0.3460600000
 C         -1.0029000000       -1.4568300000       -0.0370100000
 N          0.1964700000       -0.7339000000       -0.3621600000
 H         -1.1504000000       -2.5565400000       -0.0745000000
 C         -0.0569400000        0.6417400000       -0.1763100000
 C         -1.3592500000        0.8035200000        0.2493100000
 C         -3.3292700000       -0.7126300000        0.7581900000
 C          1.4384300000       -1.3201400000       -0.8011500000
 H         -3.5448900000       -1.8020300000        0.7431100000
 H         -4.0287500000       -0.1973800000        0.0671100000
 H         -3.4824800000       -0.3293400000        1.7887000000
 H          1.8179100000       -2.0142900000       -0.0224900000
 H          2.1991000000       -0.5311600000       -0.9820300000
 H          1.2718000000       -1.8823700000       -1.7436500000
 H          0.6581900000        1.4367600000       -0.3422800000
 H         -1.8403400000        1.7463500000        0.4742300000
