  19
 
 C         -0.0000000454       -0.7137121004       -0.0000001391
 N          1.1697946884       -0.0842555968       -0.0542785261
 N         -1.1697946776       -0.0842553953        0.0542782597
 C          1.5271805592        1.3281520413       -0.1510191716
 C         -1.5271803436        1.3281522776        0.1510190124
 H          2.4916776995        1.4097252661       -0.6558507907
 H         -2.4916774791        1.4097255960        0.6558506276
 H          0.7964845445        1.8744525996       -0.7408716620
 H         -0.7964842675        1.8744526997        0.7408715527
 H          1.6229109030        1.7912739668        0.8371704426
 H         -1.6229106184        1.7912743134       -0.8371705522
 C          2.3352156027       -0.9372647611        0.0411611191
 C         -2.3352157280       -0.9372643876       -0.0411613133
 H          2.0049606211       -1.9692997802        0.1244831727
 H         -2.0049608999       -1.9692994293       -0.1244837123
 H          2.9684574267       -0.8329442134       -0.8456307527
 H         -2.9684573256       -0.8329439911        0.8456307445
 H          2.9310427269       -0.6797121949        0.9223785172
 H         -2.9310430275       -0.6797115152       -0.9223785061
          19
        -22.60917598
 C         -0.0000312948       -0.7308123924        0.0000996716
 N          1.1705322164       -0.1011660267       -0.0298555581
 N         -1.1705706968       -0.1011294595        0.0301593797
 C          1.5293383357        1.3114678700       -0.1184110082
 C         -1.5292564169        1.3115213691        0.1183109065
 H          2.5053573497        1.3932578275       -0.6003173212
 H         -2.5056222097        1.3935814137        0.5995197396
 H          0.8125835680        1.8573127959       -0.7254706438
 H         -0.8127559945        1.8573614100        0.7258158945
 H          1.6014376096        1.7747799291        0.8714518723
 H         -1.6006344836        1.7748595083       -0.8716298946
 C          2.3341981124       -0.9535955522        0.0893773242
 C         -2.3342432207       -0.9536014112       -0.0895918231
 H          2.0029444835       -1.9856710131        0.1700498560
 H         -2.9847767713       -0.8504038493        0.7847798222
 H          2.9834009108       -0.8519495982       -0.7861805743
 H         -2.9124476365       -0.6941485341       -0.9820719682
 H          2.9139320975       -0.6928826925        0.9805336694
 H         -2.0029498922       -1.9858215677       -0.1681413562
